@<TRIPOS>MOLECULE
*****
 28 32 0 0 0
SMALL
GASTEIGER

@<TRIPOS>ATOM
      1 C          60.9175   87.8953    9.5634 C.ar    1  UNL1        0.1054
      2 C          61.2281   87.0661   10.7742 C.ar    1  UNL1        0.0181
      3 C          62.1496   87.5982   11.8314 C.ar    1  UNL1       -0.0009
      4 C          62.7606   88.9594   11.6778 C.ar    1  UNL1        0.0004
      5 C          62.4501   89.7886   10.4670 C.ar    1  UNL1       -0.0226
      6 C          61.5285   89.2566    9.4098 C.ar    1  UNL1        0.0138
      7 C          63.0611   91.1499   10.3135 C.3     1  UNL1        0.0263
      8 C          63.9826   91.6819   11.3707 C.3     1  UNL1        0.0096
      9 C          64.2932   90.8528   12.5814 C.3     1  UNL1        0.0565
     10 C          63.6822   89.4915   12.7350 C.3     1  UNL1        0.1345
     11 O          63.9927   88.6622   13.9457 O.3     1  UNL1       -0.3800
     12 H          64.5991   89.1499   14.5248 H       1  UNL1        0.2108
     13 C          65.2148   91.3848   13.6386 C.3     1  UNL1        0.1121
     14 C          66.6836   91.6437   13.4789 C.ar    1  UNL1       -0.0002
     15 C          67.6129   91.4680   12.3147 C.ar    1  UNL1       -0.0024
     16 C          69.0646   91.8188   12.4543 C.ar    1  UNL1       -0.0003
     17 C          69.5869   92.3454   13.7581 C.ar    1  UNL1        0.0000
     18 C          68.6576   92.5211   14.9223 C.ar    1  UNL1        0.0012
     19 C          67.2059   92.1703   14.7827 C.ar    1  UNL1        0.0152
     20 C          66.0599   92.2368   15.7482 C.ar    1  UNL1        0.0804
     21 C          65.6744   92.6034   17.1508 C.ar    1  UNL1        0.1177
     22 N          64.2056   92.3445   17.3104 N.ar    1  UNL1       -0.2223
     23 C          63.6832   91.8180   16.0066 C.ar    1  UNL1        0.1788
     24 N          64.8293   91.7514   15.0411 N.ar    1  UNL1       -0.3069
     25 C          59.0744   86.8310    7.4491 C.3     1  UNL1        0.1816
     26 S          59.9960   87.3632    8.5063 S.O2    1  UNL1        0.0104
     27 O          60.4563   85.9677    8.8075 O.2     1  UNL1       -0.1686
     28 O          59.5356   88.7587    8.2050 O.2     1  UNL1       -0.1686
@<TRIPOS>BOND
     1    25    26    1
     2    26    27    2
     3    26    28    2
     4    26     1    1
     5     1     2   ar
     6     2     3   ar
     7     3     4   ar
     8     4     5   ar
     9     5     6   ar
    10     5     7    1
    11     7     8    1
    12     9     8    1
    13     9    13    1
    14    13    14    1
    15    14    15   ar
    16    15    16   ar
    17    16    17   ar
    18    17    18   ar
    19    18    19   ar
    20    19    20    1
    21    20    21   ar
    22    21    22   ar
    23    22    23   ar
    24    23    24   ar
    25     9    10    1
    26    10    11    1
    27     6     1   ar
    28    13    24    1
    29    10     4    1
    30    19    14   ar
    31    24    20   ar
    32    11    12    1
@<TRIPOS>MOLECULE
*****
 28 32 0 0 0
SMALL
GASTEIGER

@<TRIPOS>ATOM
      1 C          65.4237   91.6854   14.1339 C.ar    1  UNL1        0.1054
      2 C          65.1849   92.5156   12.9076 C.ar    1  UNL1        0.0181
      3 C          64.4085   91.9475   11.7568 C.ar    1  UNL1       -0.0009
      4 C          63.8708   90.5492   11.8323 C.ar    1  UNL1        0.0004
      5 C          64.1095   89.7191   13.0586 C.ar    1  UNL1       -0.0226
      6 C          64.8860   90.2871   14.2094 C.ar    1  UNL1        0.0138
      7 C          63.5718   88.3208   13.1341 C.3     1  UNL1        0.0263
      8 C          62.7953   87.7527   11.9833 C.3     1  UNL1        0.0096
      9 C          62.5565   88.5828   10.7570 C.3     1  UNL1        0.0565
     10 C          63.0943   89.9812   10.6815 C.3     1  UNL1        0.1345
     11 O          62.8556   90.8113    9.4552 O.3     1  UNL1       -0.3800
     12 H          62.3415   90.2981    8.8124 H       1  UNL1        0.2108
     13 C          61.7801   88.0147    9.6062 C.3     1  UNL1        0.1121
     14 C          62.0262   86.6914    8.9442 C.ar    1  UNL1       -0.0002
     15 C          63.0369   85.6133    9.2010 C.ar    1  UNL1       -0.0024
     16 C          63.0409   84.3728    8.3577 C.ar    1  UNL1       -0.0003
     17 C          62.0341   84.2104    7.2577 C.ar    1  UNL1        0.0000
     18 C          61.0234   85.2885    7.0009 C.ar    1  UNL1        0.0012
     19 C          61.0194   86.5290    7.8442 C.ar    1  UNL1        0.0152
     20 C          60.1511   87.7520    7.8263 C.ar    1  UNL1        0.0804
     21 C          58.9922   88.4075    7.1354 C.ar    1  UNL1        0.1177
     22 N          58.7461   89.7309    7.7974 N.ar    1  UNL1       -0.2223
     23 C          59.7529   89.8933    8.8974 C.ar    1  UNL1        0.1788
     24 N          60.6212   88.6702    8.9153 N.ar    1  UNL1       -0.3069
     25 C          66.9766   92.8217   16.4355 C.3     1  UNL1        0.1816
     26 S          66.2002   92.2536   15.2847 S.O2    1  UNL1        0.0104
     27 O          64.9391   92.3415   16.0921 O.2     1  UNL1       -0.1686
     28 O          67.4613   92.1656   14.4773 O.2     1  UNL1       -0.1686
@<TRIPOS>BOND
     1    25    26    1
     2    26    27    2
     3    26    28    2
     4    26     1    1
     5     1     2   ar
     6     2     3   ar
     7     3     4   ar
     8     4     5   ar
     9     5     6   ar
    10     5     7    1
    11     7     8    1
    12     9     8    1
    13     9    13    1
    14    13    14    1
    15    14    15   ar
    16    15    16   ar
    17    16    17   ar
    18    17    18   ar
    19    18    19   ar
    20    19    20    1
    21    20    21   ar
    22    21    22   ar
    23    22    23   ar
    24    23    24   ar
    25     9    10    1
    26    10    11    1
    27     6     1   ar
    28    13    24    1
    29    10     4    1
    30    19    14   ar
    31    24    20   ar
    32    11    12    1
@<TRIPOS>MOLECULE
*****
 28 32 0 0 0
SMALL
GASTEIGER

@<TRIPOS>ATOM
      1 C          72.8178   78.6400   12.5792 C.ar    1  UNL1        0.1054
      2 C          71.8654   78.4543   13.7231 C.ar    1  UNL1        0.0181
      3 C          71.4577   77.0732   14.1430 C.ar    1  UNL1       -0.0009
      4 C          72.0025   75.8778   13.4190 C.ar    1  UNL1        0.0004
      5 C          72.9548   76.0635   12.2751 C.ar    1  UNL1       -0.0226
      6 C          73.3625   77.4447   11.8552 C.ar    1  UNL1        0.0138
      7 C          73.4996   74.8681   11.5511 C.3     1  UNL1        0.0263
      8 C          73.0919   73.4869   11.9709 C.3     1  UNL1        0.0096
      9 C          72.1396   73.3012   13.1148 C.3     1  UNL1        0.0565
     10 C          71.5948   74.4967   13.8388 C.3     1  UNL1        0.1345
     11 O          70.6425   74.3110   14.9827 O.3     1  UNL1       -0.3800
     12 H          70.4854   73.3640   15.1222 H       1  UNL1        0.2108
     13 C          71.7319   71.9201   13.5347 C.3     1  UNL1        0.1121
     14 C          70.6758   71.0765   12.8842 C.ar    1  UNL1       -0.0002
     15 C          69.7734   71.3253   11.7122 C.ar    1  UNL1       -0.0024
     16 C          68.7951   70.2727   11.2822 C.ar    1  UNL1       -0.0003
     17 C          68.7193   68.9713   12.0242 C.ar    1  UNL1        0.0000
     18 C          69.6217   68.7225   13.1962 C.ar    1  UNL1        0.0012
     19 C          70.5999   69.7751   13.6262 C.ar    1  UNL1        0.0152
     20 C          71.6092   69.8144   14.7352 C.ar    1  UNL1        0.0804
     21 C          72.1861   69.0342   15.8793 C.ar    1  UNL1        0.1177
     22 N          73.2422   69.8779   16.5297 N.ar    1  UNL1       -0.2223
     23 C          73.3181   71.1793   15.7876 C.ar    1  UNL1        0.1788
     24 N          72.3088   71.1400   14.6787 N.ar    1  UNL1       -0.3069
     25 C          73.6330   81.4024   11.7395 C.3     1  UNL1        0.1816
     26 S          73.2254   80.0212   12.1594 S.O2    1  UNL1        0.0104
     27 O          72.8232   79.7108   10.7481 O.2     1  UNL1       -0.1686
     28 O          73.6276   80.3316   13.5708 O.2     1  UNL1       -0.1686
@<TRIPOS>BOND
     1    25    26    1
     2    26    27    2
     3    26    28    2
     4    26     1    1
     5     1     2   ar
     6     2     3   ar
     7     3     4   ar
     8     4     5   ar
     9     5     6   ar
    10     5     7    1
    11     7     8    1
    12     9     8    1
    13     9    13    1
    14    13    14    1
    15    14    15   ar
    16    15    16   ar
    17    16    17   ar
    18    17    18   ar
    19    18    19   ar
    20    19    20    1
    21    20    21   ar
    22    21    22   ar
    23    22    23   ar
    24    23    24   ar
    25     9    10    1
    26    10    11    1
    27     6     1   ar
    28    13    24    1
    29    10     4    1
    30    19    14   ar
    31    24    20   ar
    32    11    12    1
@<TRIPOS>MOLECULE
*****
 28 32 0 0 0
SMALL
GASTEIGER

@<TRIPOS>ATOM
      1 C          61.2756   86.3776    8.7815 C.ar    1  UNL1        0.1054
      2 C          61.8401   85.6027    9.9351 C.ar    1  UNL1        0.0181
      3 C          62.4825   86.3257   11.0816 C.ar    1  UNL1       -0.0009
      4 C          62.5603   87.8237   11.0745 C.ar    1  UNL1        0.0004
      5 C          61.9958   88.5986    9.9209 C.ar    1  UNL1       -0.0226
      6 C          61.3534   87.8755    8.7744 C.ar    1  UNL1        0.0138
      7 C          62.0736   90.0965    9.9139 C.3     1  UNL1        0.0263
      8 C          62.7160   90.8196   11.0604 C.3     1  UNL1        0.0096
      9 C          63.2806   90.0447   12.2140 C.3     1  UNL1        0.0565
     10 C          63.2027   88.5467   12.2211 C.3     1  UNL1        0.1345
     11 O          63.7673   87.7718   13.3746 O.3     1  UNL1       -0.3800
     12 H          64.1425   88.3865   14.0244 H       1  UNL1        0.2108
     13 C          63.9230   90.7678   13.3605 C.3     1  UNL1        0.1121
     14 C          64.9777   91.8290   13.2538 C.ar    1  UNL1       -0.0002
     15 C          65.6627   92.4480   12.0716 C.ar    1  UNL1       -0.0024
     16 C          66.7001   93.5115   12.2780 C.ar    1  UNL1       -0.0003
     17 C          67.0524   93.9561   13.6665 C.ar    1  UNL1        0.0000
     18 C          66.3674   93.3372   14.8487 C.ar    1  UNL1        0.0012
     19 C          65.3300   92.2737   14.6423 C.ar    1  UNL1        0.0152
     20 C          64.4931   91.4872   15.6072 C.ar    1  UNL1        0.0804
     21 C          64.1937   91.2759   17.0619 C.ar    1  UNL1        0.1177
     22 N          63.1390   90.2146   17.1685 N.ar    1  UNL1       -0.2223
     23 C          62.7866   89.7700   15.7800 C.ar    1  UNL1        0.1788
     24 N          63.6235   90.5565   14.8151 N.ar    1  UNL1       -0.3069
     25 C          59.9907   84.9314    6.4885 C.3     1  UNL1        0.1816
     26 S          60.6332   85.6545    7.6350 S.O2    1  UNL1        0.0104
     27 O          59.3187   86.2964    7.9668 O.2     1  UNL1       -0.1686
     28 O          61.9476   85.0126    7.3032 O.2     1  UNL1       -0.1686
@<TRIPOS>BOND
     1    25    26    1
     2    26    27    2
     3    26    28    2
     4    26     1    1
     5     1     2   ar
     6     2     3   ar
     7     3     4   ar
     8     4     5   ar
     9     5     6   ar
    10     5     7    1
    11     7     8    1
    12     9     8    1
    13     9    13    1
    14    13    14    1
    15    14    15   ar
    16    15    16   ar
    17    16    17   ar
    18    17    18   ar
    19    18    19   ar
    20    19    20    1
    21    20    21   ar
    22    21    22   ar
    23    22    23   ar
    24    23    24   ar
    25     9    10    1
    26    10    11    1
    27     6     1   ar
    28    13    24    1
    29    10     4    1
    30    19    14   ar
    31    24    20   ar
    32    11    12    1
@<TRIPOS>MOLECULE
*****
 28 32 0 0 0
SMALL
GASTEIGER

@<TRIPOS>ATOM
      1 C          67.2627   92.7987   14.6950 C.ar    1  UNL1        0.1054
      2 C          66.9349   93.3299   13.3310 C.ar    1  UNL1        0.0181
      3 C          65.9282   92.6229   12.4728 C.ar    1  UNL1       -0.0009
      4 C          65.2492   91.3847   12.9786 C.ar    1  UNL1        0.0004
      5 C          65.5770   90.8535   14.3425 C.ar    1  UNL1       -0.0226
      6 C          66.5838   91.5605   15.2008 C.ar    1  UNL1        0.0138
      7 C          64.8980   89.6153   14.8482 C.3     1  UNL1        0.0263
      8 C          63.8913   88.9083   13.9900 C.3     1  UNL1        0.0096
      9 C          63.5635   89.4394   12.6261 C.3     1  UNL1        0.0565
     10 C          64.2425   90.6777   12.1203 C.3     1  UNL1        0.1345
     11 O          63.9147   91.2089   10.7564 O.3     1  UNL1       -0.3800
     12 H          63.2507   90.6387   10.3383 H       1  UNL1        0.2108
     13 C          62.5567   88.7324   11.7678 C.3     1  UNL1        0.1121
     14 C          62.4917   87.2543   11.5209 C.ar    1  UNL1       -0.0002
     15 C          63.3377   86.1167   12.0107 C.ar    1  UNL1       -0.0024
     16 C          63.0252   84.7125   11.5859 C.ar    1  UNL1       -0.0003
     17 C          61.8666   84.4459   10.6713 C.ar    1  UNL1        0.0000
     18 C          61.0205   85.5835   10.1815 C.ar    1  UNL1        0.0012
     19 C          61.3330   86.9877   10.6063 C.ar    1  UNL1        0.0152
     20 C          60.6820   88.3010   10.2880 C.ar    1  UNL1        0.0804
     21 C          59.5635   88.9480    9.5260 C.ar    1  UNL1        0.1177
     22 N          59.6287   90.4261    9.7730 N.ar    1  UNL1       -0.2223
     23 C          60.7873   90.6927   10.6876 C.ar    1  UNL1        0.1788
     24 N          61.4383   89.3793   11.0059 N.ar    1  UNL1       -0.3069
     25 C          69.2764   94.2129   16.4113 C.3     1  UNL1        0.1816
     26 S          68.2695   93.5058   15.5532 S.O2    1  UNL1        0.0104
     27 O          69.3528   93.1430   14.5811 O.2     1  UNL1       -0.1686
     28 O          67.1862   93.8686   16.5252 O.2     1  UNL1       -0.1686
@<TRIPOS>BOND
     1    25    26    1
     2    26    27    2
     3    26    28    2
     4    26     1    1
     5     1     2   ar
     6     2     3   ar
     7     3     4   ar
     8     4     5   ar
     9     5     6   ar
    10     5     7    1
    11     7     8    1
    12     9     8    1
    13     9    13    1
    14    13    14    1
    15    14    15   ar
    16    15    16   ar
    17    16    17   ar
    18    17    18   ar
    19    18    19   ar
    20    19    20    1
    21    20    21   ar
    22    21    22   ar
    23    22    23   ar
    24    23    24   ar
    25     9    10    1
    26    10    11    1
    27     6     1   ar
    28    13    24    1
    29    10     4    1
    30    19    14   ar
    31    24    20   ar
    32    11    12    1
@<TRIPOS>MOLECULE
*****
 28 32 0 0 0
SMALL
GASTEIGER

@<TRIPOS>ATOM
      1 C          72.5809   78.2613   13.0250 C.ar    1  UNL1        0.1054
      2 C          71.7047   78.0071   14.2156 C.ar    1  UNL1        0.0181
      3 C          71.2653   76.6098   14.5388 C.ar    1  UNL1       -0.0009
      4 C          71.7021   75.4668   13.6712 C.ar    1  UNL1        0.0004
      5 C          72.5782   75.7210   12.4806 C.ar    1  UNL1       -0.0226
      6 C          73.0177   77.1183   12.1574 C.ar    1  UNL1        0.0138
      7 C          73.0150   74.5779   11.6131 C.3     1  UNL1        0.0263
      8 C          72.5756   73.1806   11.9362 C.3     1  UNL1        0.0096
      9 C          71.6994   72.9263   13.1268 C.3     1  UNL1        0.0565
     10 C          71.2626   74.0695   13.9944 C.3     1  UNL1        0.1345
     11 O          70.3865   73.8152   15.1851 O.3     1  UNL1       -0.3800
     12 H          70.1967   72.8662   15.2501 H       1  UNL1        0.2108
     13 C          71.2600   71.5290   13.4500 C.3     1  UNL1        0.1121
     14 C          71.6197   70.7547   14.6833 C.ar    1  UNL1       -0.0002
     15 C          72.4581   71.1021   15.8776 C.ar    1  UNL1       -0.0024
     16 C          72.6426   70.1025   16.9807 C.ar    1  UNL1       -0.0003
     17 C          71.9887   68.7557   16.8895 C.ar    1  UNL1        0.0000
     18 C          71.1503   68.4083   15.6953 C.ar    1  UNL1        0.0012
     19 C          70.9657   69.4078   14.5922 C.ar    1  UNL1        0.0152
     20 C          70.2020   69.3498   13.3025 C.ar    1  UNL1        0.0804
     21 C          69.3257   68.4814   12.4491 C.ar    1  UNL1        0.1177
     22 N          68.9661   69.2558   11.2157 N.ar    1  UNL1       -0.2223
     23 C          69.6200   70.6026   11.3069 C.ar    1  UNL1        0.1788
     24 N          70.3838   70.6607   12.5966 N.ar    1  UNL1       -0.3069
     25 C          73.4597   81.0560   12.3787 C.3     1  UNL1        0.1816
     26 S          73.0203   79.6587   12.7019 S.O2    1  UNL1        0.0104
     27 O          73.6284   79.1711   11.4204 O.2     1  UNL1       -0.1686
     28 O          72.4121   80.1464   13.9834 O.2     1  UNL1       -0.1686
@<TRIPOS>BOND
     1    25    26    1
     2    26    27    2
     3    26    28    2
     4    26     1    1
     5     1     2   ar
     6     2     3   ar
     7     3     4   ar
     8     4     5   ar
     9     5     6   ar
    10     5     7    1
    11     7     8    1
    12     9     8    1
    13     9    13    1
    14    13    14    1
    15    14    15   ar
    16    15    16   ar
    17    16    17   ar
    18    17    18   ar
    19    18    19   ar
    20    19    20    1
    21    20    21   ar
    22    21    22   ar
    23    22    23   ar
    24    23    24   ar
    25     9    10    1
    26    10    11    1
    27     6     1   ar
    28    13    24    1
    29    10     4    1
    30    19    14   ar
    31    24    20   ar
    32    11    12    1
@<TRIPOS>MOLECULE
*****
 28 32 0 0 0
SMALL
GASTEIGER

@<TRIPOS>ATOM
      1 C          65.7731   93.6324   11.5860 C.ar    1  UNL1        0.1054
      2 C          66.5246   93.3951   12.8623 C.ar    1  UNL1        0.0181
      3 C          66.2427   92.1711   13.6823 C.ar    1  UNL1       -0.0009
      4 C          65.2092   91.1844   13.2258 C.ar    1  UNL1        0.0004
      5 C          64.4578   91.4217   11.9495 C.ar    1  UNL1       -0.0226
      6 C          64.7397   92.6457   11.1296 C.ar    1  UNL1        0.0138
      7 C          63.4243   90.4349   11.4932 C.3     1  UNL1        0.0263
      8 C          63.1424   89.2109   12.3131 C.3     1  UNL1        0.0096
      9 C          63.8938   88.9736   13.5894 C.3     1  UNL1        0.0565
     10 C          64.9273   89.9604   14.0458 C.3     1  UNL1        0.1345
     11 O          65.6788   89.7232   15.3221 O.3     1  UNL1       -0.3800
     12 H          65.3778   88.8938   15.7252 H       1  UNL1        0.2108
     13 C          63.6119   87.7496   14.4093 C.3     1  UNL1        0.1121
     14 C          63.5641   86.3393   13.9005 C.ar    1  UNL1       -0.0002
     15 C          63.7652   85.7586   12.5322 C.ar    1  UNL1       -0.0024
     16 C          63.6532   84.2776   12.3221 C.ar    1  UNL1       -0.0003
     17 C          63.3401   83.3774   13.4803 C.ar    1  UNL1        0.0000
     18 C          63.1389   83.9581   14.8486 C.ar    1  UNL1        0.0012
     19 C          63.2509   85.4390   15.0587 C.ar    1  UNL1        0.0152
     20 C          63.1051   86.2929   16.2833 C.ar    1  UNL1        0.0804
     21 C          62.8215   86.2642   17.7560 C.ar    1  UNL1        0.1177
     22 N          62.8693   87.6746   18.2648 N.ar    1  UNL1       -0.2223
     23 C          63.1825   88.5748   17.1066 C.ar    1  UNL1        0.1788
     24 N          63.3282   87.7209   15.8820 N.ar    1  UNL1       -0.3069
     25 C          66.3372   96.0804    9.9461 C.3     1  UNL1        0.1816
     26 S          66.0551   94.8564   10.7661 S.O2    1  UNL1        0.0104
     27 O          66.2894   93.9950    9.5607 O.2     1  UNL1       -0.1686
     28 O          65.8209   95.7179   11.9715 O.2     1  UNL1       -0.1686
@<TRIPOS>BOND
     1    25    26    1
     2    26    27    2
     3    26    28    2
     4    26     1    1
     5     1     2   ar
     6     2     3   ar
     7     3     4   ar
     8     4     5   ar
     9     5     6   ar
    10     5     7    1
    11     7     8    1
    12     9     8    1
    13     9    13    1
    14    13    14    1
    15    14    15   ar
    16    15    16   ar
    17    16    17   ar
    18    17    18   ar
    19    18    19   ar
    20    19    20    1
    21    20    21   ar
    22    21    22   ar
    23    22    23   ar
    24    23    24   ar
    25     9    10    1
    26    10    11    1
    27     6     1   ar
    28    13    24    1
    29    10     4    1
    30    19    14   ar
    31    24    20   ar
    32    11    12    1
@<TRIPOS>MOLECULE
*****
 28 32 0 0 0
SMALL
GASTEIGER

@<TRIPOS>ATOM
      1 C          61.1303   93.4322    0.5771 C.ar    1  UNL1        0.1054
      2 C          61.4335   94.6634   -0.2242 C.ar    1  UNL1        0.0181
      3 C          60.4329   95.1779   -1.2163 C.ar    1  UNL1       -0.0009
      4 C          59.1292   94.4611   -1.4070 C.ar    1  UNL1        0.0004
      5 C          58.8260   93.2298   -0.6057 C.ar    1  UNL1       -0.0226
      6 C          59.8266   92.7154    0.3864 C.ar    1  UNL1        0.0138
      7 C          57.5222   92.5131   -0.7965 C.3     1  UNL1        0.0263
      8 C          56.5217   93.0276   -1.7886 C.3     1  UNL1        0.0096
      9 C          56.8248   94.2588   -2.5899 C.3     1  UNL1        0.0565
     10 C          58.1287   94.9756   -2.3991 C.3     1  UNL1        0.1345
     11 O          58.4319   96.2068   -3.2004 O.3     1  UNL1       -0.3800
     12 H          57.6861   96.4010   -3.7894 H       1  UNL1        0.2108
     13 C          55.8242   94.7732   -3.5819 C.3     1  UNL1        0.1121
     14 C          54.4974   95.3922   -3.2558 C.ar    1  UNL1       -0.0002
     15 C          53.8123   95.6679   -1.9502 C.ar    1  UNL1       -0.0024
     16 C          52.4577   96.3120   -1.9354 C.ar    1  UNL1       -0.0003
     17 C          51.7883   96.6804   -3.2262 C.ar    1  UNL1        0.0000
     18 C          52.4734   96.4047   -4.5318 C.ar    1  UNL1        0.0012
     19 C          53.8280   95.7606   -4.5466 C.ar    1  UNL1        0.0152
     20 C          54.7411   95.3693   -5.6704 C.ar    1  UNL1        0.0804
     21 C          54.8917   95.3553   -7.1629 C.ar    1  UNL1        0.1177
     22 N          56.2186   94.7363   -7.4889 N.ar    1  UNL1       -0.2223
     23 C          56.8881   94.3679   -6.1981 C.ar    1  UNL1        0.1788
     24 N          55.9749   94.7591   -5.0743 N.ar    1  UNL1       -0.3069
     25 C          63.1315   92.4033    2.5613 C.3     1  UNL1        0.1816
     26 S          62.1309   92.9177    1.5692 S.O2    1  UNL1        0.0104
     27 O          61.0354   92.7297    2.5764 O.2     1  UNL1       -0.1686
     28 O          63.2264   93.1058    0.5619 O.2     1  UNL1       -0.1686
@<TRIPOS>BOND
     1    25    26    1
     2    26    27    2
     3    26    28    2
     4    26     1    1
     5     1     2   ar
     6     2     3   ar
     7     3     4   ar
     8     4     5   ar
     9     5     6   ar
    10     5     7    1
    11     7     8    1
    12     9     8    1
    13     9    13    1
    14    13    14    1
    15    14    15   ar
    16    15    16   ar
    17    16    17   ar
    18    17    18   ar
    19    18    19   ar
    20    19    20    1
    21    20    21   ar
    22    21    22   ar
    23    22    23   ar
    24    23    24   ar
    25     9    10    1
    26    10    11    1
    27     6     1   ar
    28    13    24    1
    29    10     4    1
    30    19    14   ar
    31    24    20   ar
    32    11    12    1
@<TRIPOS>MOLECULE
*****
 28 32 0 0 0
SMALL
GASTEIGER

@<TRIPOS>ATOM
      1 C          66.2916   92.4141   14.3739 C.ar    1  UNL1        0.1054
      2 C          66.0398   91.1698   15.1728 C.ar    1  UNL1        0.0181
      3 C          65.1878   90.0735   14.6050 C.ar    1  UNL1       -0.0009
      4 C          64.5877   90.2217   13.2383 C.ar    1  UNL1        0.0004
      5 C          64.8395   91.4660   12.4395 C.ar    1  UNL1       -0.0226
      6 C          65.6915   92.5623   13.0073 C.ar    1  UNL1        0.0138
      7 C          64.2393   91.6141   11.0728 C.3     1  UNL1        0.0263
      8 C          63.3873   90.5179   10.5050 C.3     1  UNL1        0.0096
      9 C          63.1355   89.2736   11.3038 C.3     1  UNL1        0.0565
     10 C          63.7357   89.1254   12.6705 C.3     1  UNL1        0.1345
     11 O          63.4840   87.8811   13.4694 O.3     1  UNL1       -0.3800
     12 H          62.9185   87.2791   12.9607 H       1  UNL1        0.2108
     13 C          62.2836   88.1773   10.7360 C.3     1  UNL1        0.1121
     14 C          61.2124   88.3407    9.6986 C.ar    1  UNL1       -0.0002
     15 C          60.7000   89.5451    8.9661 C.ar    1  UNL1       -0.0024
     16 C          59.5952   89.3985    7.9622 C.ar    1  UNL1       -0.0003
     17 C          59.0027   88.0474    7.6910 C.ar    1  UNL1        0.0000
     18 C          59.5152   86.8430    8.4235 C.ar    1  UNL1        0.0012
     19 C          60.6200   86.9896    9.4273 C.ar    1  UNL1        0.0152
     20 C          61.3250   85.9913   10.2970 C.ar    1  UNL1        0.0804
     21 C          61.3946   84.5391   10.6668 C.ar    1  UNL1        0.1177
     22 N          62.4658   84.3759   11.7041 N.ar    1  UNL1       -0.2223
     23 C          63.0582   85.7269   11.9754 C.ar    1  UNL1        0.1788
     24 N          62.3532   86.7253   11.1058 N.ar    1  UNL1       -0.3069
     25 C          67.9955   94.6066   15.5096 C.3     1  UNL1        0.1816
     26 S          67.1436   93.5104   14.9418 S.O2    1  UNL1        0.0104
     27 O          66.5360   94.4832   13.9752 O.2     1  UNL1       -0.1686
     28 O          67.7512   92.5375   15.9085 O.2     1  UNL1       -0.1686
@<TRIPOS>BOND
     1    25    26    1
     2    26    27    2
     3    26    28    2
     4    26     1    1
     5     1     2   ar
     6     2     3   ar
     7     3     4   ar
     8     4     5   ar
     9     5     6   ar
    10     5     7    1
    11     7     8    1
    12     9     8    1
    13     9    13    1
    14    13    14    1
    15    14    15   ar
    16    15    16   ar
    17    16    17   ar
    18    17    18   ar
    19    18    19   ar
    20    19    20    1
    21    20    21   ar
    22    21    22   ar
    23    22    23   ar
    24    23    24   ar
    25     9    10    1
    26    10    11    1
    27     6     1   ar
    28    13    24    1
    29    10     4    1
    30    19    14   ar
    31    24    20   ar
    32    11    12    1
