@<TRIPOS>MOLECULE
*****
 39 43 0 0 0
SMALL
GASTEIGER

@<TRIPOS>ATOM
      1 N          63.2838   89.4252   16.0090 N.ar    1  UNL1       -0.1994
      2 N          64.4671   90.2905   15.6909 N.ar    1  UNL1       -0.1460
      3 C          64.3291   90.7620   14.2737 C.ar    1  UNL1        0.1860
      4 C          65.1946   91.6397   13.4191 C.ar    1  UNL1        0.0423
      5 C          64.7916   91.9436   12.0065 C.ar    1  UNL1        0.0635
      6 C          63.5230   91.3697   11.4486 C.ar    1  UNL1        0.2757
      7 O          63.1199   91.6736   10.0361 O.2     1  UNL1       -0.2655
      8 N          62.6574   90.4920   12.3033 N.ar    1  UNL1       -0.2229
      9 N          63.0605   90.1881   13.7157 N.ar    1  UNL1       -0.1765
     10 C          62.4145   89.3620   14.7882 C.ar    1  UNL1        0.3669
     11 O          61.1254   88.6054   14.6621 O.2     1  UNL1       -0.2429
     12 C          66.4633   92.2136   13.9770 C.ar    1  UNL1        0.0032
     13 C          67.7898   91.6669   13.5395 C.ar    1  UNL1        0.0010
     14 C          69.0584   92.2407   14.0974 C.ar    1  UNL1        0.0114
     15 C          69.0005   93.3613   15.0928 C.ar    1  UNL1        0.0577
     16 CL         70.2692   93.9352   15.6507 Cl      1  UNL1       -0.0822
     17 C          67.6740   93.9081   15.5304 C.ar    1  UNL1        0.0114
     18 C          66.4054   93.3342   14.9724 C.ar    1  UNL1        0.0010
     19 C          65.6572   92.8213   11.1519 C.ar    1  UNL1        0.0431
     20 C          65.4441   94.3061   11.1447 C.ar    1  UNL1        0.1019
     21 N          66.3096   95.1838   10.2901 N.ar    1  UNL1       -0.2291
     22 C          67.3884   94.5768    9.4427 C.ar    1  UNL1        0.1396
     23 C          68.2539   95.4545    8.5881 C.3     1  UNL1        0.0737
     24 N          67.6014   93.0920    9.4500 N.ar    1  UNL1       -0.2291
     25 C          66.7358   92.2143   10.3046 C.ar    1  UNL1        0.1019
     26 C          62.8533   87.2528   17.3673 C.3     1  UNL1        0.0286
     27 C          63.0168   88.7430   17.3179 C.3     1  UNL1        0.1324
     28 C          61.3888   89.9181   11.7453 C.3     1  UNL1        0.1568
     29 C          61.4470   88.8051   10.7414 C.ar    1  UNL1        0.0158
     30 C          62.2794   87.5883   11.0181 C.ar    1  UNL1        0.0003
     31 C          62.3376   86.4753   10.0141 C.ar    1  UNL1        0.0228
     32 C          61.5633   86.5791    8.7336 C.ar    1  UNL1        0.1522
     33 N          60.7309   87.7959    8.4570 N.ar    1  UNL1       -0.2460
     34 C          60.6728   88.9088    9.4609 C.ar    1  UNL1        0.0572
     35 C          59.8403   90.1257    9.1843 C.3     1  UNL1        0.0518
     36 C          61.6215   85.4661    7.7297 C.3     1  UNL1        0.4348
     37 F          61.6797   84.3531    6.7258 F       1  UNL1       -0.1644
     38 F          63.0960   85.3281    7.9681 F       1  UNL1       -0.1644
     39 F          60.1471   85.6041    7.4912 F       1  UNL1       -0.1644
@<TRIPOS>BOND
     1    26    27    1
     2    27     1    1
     3     1     2   ar
     4     2     3   ar
     5     3     4   ar
     6     4    12    1
     7    12    13   ar
     8    13    14   ar
     9    14    15   ar
    10    15    16    1
    11    15    17   ar
    12    17    18   ar
    13     4     5   ar
    14     5    19    1
    15    19    20   ar
    16    20    21   ar
    17    21    22   ar
    18    22    23    1
    19    22    24   ar
    20    24    25   ar
    21     5     6   ar
    22     6     7    2
    23     6     8   ar
    24     8    28    1
    25    28    29    1
    26    29    30   ar
    27    30    31   ar
    28    31    32   ar
    29    32    36    1
    30    36    37    1
    31    36    38    1
    32    36    39    1
    33    32    33   ar
    34    33    34   ar
    35    34    35    1
    36     8     9   ar
    37     9    10   ar
    38    10    11    2
    39    10     1   ar
    40     9     3   ar
    41    18    12   ar
    42    25    19   ar
    43    34    29   ar
@<TRIPOS>MOLECULE
*****
 39 43 0 0 0
SMALL
GASTEIGER

@<TRIPOS>ATOM
      1 N          63.6495   86.4113   15.6209 N.ar    1  UNL1       -0.1994
      2 N          63.4948   85.3637   14.5586 N.ar    1  UNL1       -0.1460
      3 C          63.1366   86.0536   13.2757 C.ar    1  UNL1        0.1860
      4 C          62.8626   85.5301   11.8971 C.ar    1  UNL1        0.0423
      5 C          62.5218   86.4806   10.7878 C.ar    1  UNL1        0.0635
      6 C          62.4551   87.9547   11.0573 C.ar    1  UNL1        0.2757
      7 O          62.1143   88.9052    9.9481 O.2     1  UNL1       -0.2655
      8 N          62.7291   88.4783   12.4360 N.ar    1  UNL1       -0.2229
      9 N          63.0699   87.5277   13.5452 N.ar    1  UNL1       -0.1765
     10 C          63.3868   87.7488   14.9946 C.ar    1  UNL1        0.3669
     11 O          63.4330   89.0745   15.6947 O.2     1  UNL1       -0.2429
     12 C          62.9294   84.0560   11.6276 C.ar    1  UNL1        0.0032
     13 C          63.8266   83.5311   10.5462 C.ar    1  UNL1        0.0010
     14 C          63.8934   82.0571   10.2768 C.ar    1  UNL1        0.0114
     15 C          63.0629   81.1078   11.0886 C.ar    1  UNL1        0.0577
     16 CL         63.1296   79.6338   10.8191 Cl      1  UNL1       -0.0822
     17 C          62.1655   81.6327   12.1700 C.ar    1  UNL1        0.0114
     18 C          62.0988   83.1068   12.4395 C.ar    1  UNL1        0.0010
     19 C          62.2478   85.9571    9.4091 C.ar    1  UNL1        0.0431
     20 C          63.3717   85.4191    8.5740 C.ar    1  UNL1        0.1019
     21 N          63.0977   84.8956    7.1954 N.ar    1  UNL1       -0.2291
     22 C          61.6997   84.9099    6.6517 C.ar    1  UNL1        0.1396
     23 C          61.4257   84.3864    5.2731 C.3     1  UNL1        0.0737
     24 N          60.5758   85.4479    7.4868 N.ar    1  UNL1       -0.2291
     25 C          60.8499   85.9715    8.8656 C.ar    1  UNL1        0.1019
     26 C          62.9848   86.3978   18.1324 C.3     1  UNL1        0.0286
     27 C          64.0044   86.1648   17.0573 C.3     1  UNL1        0.1324
     28 C          62.6623   89.9523   12.7055 C.3     1  UNL1        0.1568
     29 C          63.6975   90.8688   12.1235 C.ar    1  UNL1        0.0158
     30 C          63.5653   91.3467   10.7079 C.ar    1  UNL1        0.0003
     31 C          64.6004   92.2631   10.1259 C.ar    1  UNL1        0.0228
     32 C          65.7677   92.7016   10.9596 C.ar    1  UNL1        0.1522
     33 N          65.8999   92.2237   12.3753 N.ar    1  UNL1       -0.2460
     34 C          64.8648   91.3073   12.9572 C.ar    1  UNL1        0.0572
     35 C          64.9970   90.8293   14.3729 C.3     1  UNL1        0.0518
     36 C          66.8028   93.6181   10.3776 C.3     1  UNL1        0.4348
     37 F          67.8380   94.5345    9.7956 F       1  UNL1       -0.1644
     38 F          66.0170   94.8054   10.8494 F       1  UNL1       -0.1644
     39 F          67.5887   92.4308    9.9059 F       1  UNL1       -0.1644
@<TRIPOS>BOND
     1    26    27    1
     2    27     1    1
     3     1     2   ar
     4     2     3   ar
     5     3     4   ar
     6     4    12    1
     7    12    13   ar
     8    13    14   ar
     9    14    15   ar
    10    15    16    1
    11    15    17   ar
    12    17    18   ar
    13     4     5   ar
    14     5    19    1
    15    19    20   ar
    16    20    21   ar
    17    21    22   ar
    18    22    23    1
    19    22    24   ar
    20    24    25   ar
    21     5     6   ar
    22     6     7    2
    23     6     8   ar
    24     8    28    1
    25    28    29    1
    26    29    30   ar
    27    30    31   ar
    28    31    32   ar
    29    32    36    1
    30    36    37    1
    31    36    38    1
    32    36    39    1
    33    32    33   ar
    34    33    34   ar
    35    34    35    1
    36     8     9   ar
    37     9    10   ar
    38    10    11    2
    39    10     1   ar
    40     9     3   ar
    41    18    12   ar
    42    25    19   ar
    43    34    29   ar
@<TRIPOS>MOLECULE
*****
 39 43 0 0 0
SMALL
GASTEIGER

@<TRIPOS>ATOM
      1 N          61.9191   90.1720   10.0589 N.ar    1  UNL1       -0.1994
      2 N          63.0236   91.1823   10.1555 N.ar    1  UNL1       -0.1460
      3 C          63.7198   90.9839   11.4693 C.ar    1  UNL1        0.1860
      4 C          64.8805   91.6885   12.1066 C.ar    1  UNL1        0.0423
      5 C          65.3670   91.2602   13.4594 C.ar    1  UNL1        0.0635
      6 C          64.6927   90.1273   14.1748 C.ar    1  UNL1        0.2757
      7 O          65.1791   89.6990   15.5275 O.2     1  UNL1       -0.2655
      8 N          63.5319   89.4227   13.5374 N.ar    1  UNL1       -0.2229
      9 N          63.0454   89.8510   12.1847 N.ar    1  UNL1       -0.1765
     10 C          61.9326   89.3493   11.3130 C.ar    1  UNL1        0.3669
     11 O          60.9974   88.2225   11.6384 O.2     1  UNL1       -0.2429
     12 C          65.5548   92.8215   11.3912 C.ar    1  UNL1        0.0032
     13 C          65.3930   94.2264   11.8910 C.ar    1  UNL1        0.0010
     14 C          66.0673   95.3593   11.1756 C.ar    1  UNL1        0.0114
     15 C          66.9034   95.0873    9.9604 C.ar    1  UNL1        0.0577
     16 CL         67.5777   96.2202    9.2450 Cl      1  UNL1       -0.0822
     17 C          67.0652   93.6823    9.4605 C.ar    1  UNL1        0.0114
     18 C          66.3909   92.5494   10.1759 C.ar    1  UNL1        0.0010
     19 C          66.5277   91.9648   14.0967 C.ar    1  UNL1        0.0431
     20 C          66.3074   92.8419   15.2934 C.ar    1  UNL1        0.1019
     21 N          67.4682   93.5465   15.9307 N.ar    1  UNL1       -0.2291
     22 C          68.8493   93.3740   15.3713 C.ar    1  UNL1        0.1396
     23 C          70.0100   94.0786   16.0086 C.3     1  UNL1        0.0737
     24 N          69.0695   92.4969   14.1746 N.ar    1  UNL1       -0.2291
     25 C          67.9087   91.7923   13.5373 C.ar    1  UNL1        0.1019
     26 C          60.2246   88.7230    8.7252 C.3     1  UNL1        0.0286
     27 C          60.9681   90.0125    8.9099 C.3     1  UNL1        0.1324
     28 C          62.8576   88.2898   14.2528 C.3     1  UNL1        0.1568
     29 C          63.2266   86.8724   13.9286 C.ar    1  UNL1        0.0158
     30 C          63.1550   86.3840   12.5122 C.ar    1  UNL1        0.0003
     31 C          63.5240   84.9667   12.1881 C.ar    1  UNL1        0.0228
     32 C          63.9646   84.0379   13.2804 C.ar    1  UNL1        0.1522
     33 N          64.0362   84.5263   14.6968 N.ar    1  UNL1       -0.2460
     34 C          63.6672   85.9436   15.0209 C.ar    1  UNL1        0.0572
     35 C          63.7388   86.4321   16.4374 C.3     1  UNL1        0.0518
     36 C          64.3336   82.6205   12.9562 C.3     1  UNL1        0.4348
     37 F          64.7027   81.2032   12.6320 F       1  UNL1       -0.1644
     38 F          64.0017   82.2127   14.3610 F       1  UNL1       -0.1644
     39 F          64.6656   83.0283   11.5514 F       1  UNL1       -0.1644
@<TRIPOS>BOND
     1    26    27    1
     2    27     1    1
     3     1     2   ar
     4     2     3   ar
     5     3     4   ar
     6     4    12    1
     7    12    13   ar
     8    13    14   ar
     9    14    15   ar
    10    15    16    1
    11    15    17   ar
    12    17    18   ar
    13     4     5   ar
    14     5    19    1
    15    19    20   ar
    16    20    21   ar
    17    21    22   ar
    18    22    23    1
    19    22    24   ar
    20    24    25   ar
    21     5     6   ar
    22     6     7    2
    23     6     8   ar
    24     8    28    1
    25    28    29    1
    26    29    30   ar
    27    30    31   ar
    28    31    32   ar
    29    32    36    1
    30    36    37    1
    31    36    38    1
    32    36    39    1
    33    32    33   ar
    34    33    34   ar
    35    34    35    1
    36     8     9   ar
    37     9    10   ar
    38    10    11    2
    39    10     1   ar
    40     9     3   ar
    41    18    12   ar
    42    25    19   ar
    43    34    29   ar
@<TRIPOS>MOLECULE
*****
 39 43 0 0 0
SMALL
GASTEIGER

@<TRIPOS>ATOM
      1 N          63.5732   86.2761   15.6321 N.ar    1  UNL1       -0.1994
      2 N          63.4241   85.2368   14.5608 N.ar    1  UNL1       -0.1460
      3 C          63.1108   85.9398   13.2733 C.ar    1  UNL1        0.1860
      4 C          62.8604   85.4284   11.8856 C.ar    1  UNL1        0.0423
      5 C          62.5653   86.3908   10.7734 C.ar    1  UNL1        0.0635
      6 C          62.5208   87.8646   11.0490 C.ar    1  UNL1        0.2757
      7 O          62.2258   88.8269    9.9369 O.2     1  UNL1       -0.2655
      8 N          62.7712   88.3760   12.4368 N.ar    1  UNL1       -0.2229
      9 N          63.0662   87.4136   13.5489 N.ar    1  UNL1       -0.1765
     10 C          63.3520   87.6214   15.0067 C.ar    1  UNL1        0.3669
     11 O          63.4069   88.9427   15.7147 O.2     1  UNL1       -0.2429
     12 C          62.9049   83.9546   11.6101 C.ar    1  UNL1        0.0032
     13 C          63.7888   83.4215   10.5217 C.ar    1  UNL1        0.0010
     14 C          63.8334   81.9477   10.2462 C.ar    1  UNL1        0.0114
     15 C          62.9941   81.0070   11.0589 C.ar    1  UNL1        0.0577
     16 CL         63.0386   79.5332   10.7833 Cl      1  UNL1       -0.0822
     17 C          62.1101   81.5401   12.1473 C.ar    1  UNL1        0.0114
     18 C          62.0656   83.0139   12.4229 C.ar    1  UNL1        0.0010
     19 C          62.3149   85.8793    9.3858 C.ar    1  UNL1        0.0431
     20 C          63.4540   85.3545    8.5629 C.ar    1  UNL1        0.1019
     21 N          63.2035   84.8430    7.1753 N.ar    1  UNL1       -0.2291
     22 C          61.8140   84.8564    6.6104 C.ar    1  UNL1        0.1396
     23 C          61.5635   84.3450    5.2227 C.3     1  UNL1        0.0737
     24 N          60.6749   85.3813    7.4332 N.ar    1  UNL1       -0.2291
     25 C          60.9254   85.8927    8.8210 C.ar    1  UNL1        0.1019
     26 C          62.9153   86.4256   18.1410 C.3     1  UNL1        0.0286
     27 C          63.8881   86.0158   17.0754 C.3     1  UNL1        0.1324
     28 C          62.7267   89.8498   12.7123 C.3     1  UNL1        0.1568
     29 C          63.9798   90.5791   13.0970 C.ar    1  UNL1        0.0158
     30 C          64.5850   90.3666   14.4529 C.ar    1  UNL1        0.0003
     31 C          65.8381   91.0959   14.8375 C.ar    1  UNL1        0.0228
     32 C          66.4859   92.0377   13.8662 C.ar    1  UNL1        0.1522
     33 N          65.8806   92.2502   12.5103 N.ar    1  UNL1       -0.2460
     34 C          64.6276   91.5209   12.1257 C.ar    1  UNL1        0.0572
     35 C          64.0223   91.7334   10.7698 C.3     1  UNL1        0.0518
     36 C          67.7390   92.7670   14.2509 C.3     1  UNL1        0.4348
     37 F          68.9920   93.4963   14.6356 F       1  UNL1       -0.1644
     38 F          68.5610   91.7170   13.5640 F       1  UNL1       -0.1644
     39 F          66.9170   93.8169   14.9378 F       1  UNL1       -0.1644
@<TRIPOS>BOND
     1    26    27    1
     2    27     1    1
     3     1     2   ar
     4     2     3   ar
     5     3     4   ar
     6     4    12    1
     7    12    13   ar
     8    13    14   ar
     9    14    15   ar
    10    15    16    1
    11    15    17   ar
    12    17    18   ar
    13     4     5   ar
    14     5    19    1
    15    19    20   ar
    16    20    21   ar
    17    21    22   ar
    18    22    23    1
    19    22    24   ar
    20    24    25   ar
    21     5     6   ar
    22     6     7    2
    23     6     8   ar
    24     8    28    1
    25    28    29    1
    26    29    30   ar
    27    30    31   ar
    28    31    32   ar
    29    32    36    1
    30    36    37    1
    31    36    38    1
    32    36    39    1
    33    32    33   ar
    34    33    34   ar
    35    34    35    1
    36     8     9   ar
    37     9    10   ar
    38    10    11    2
    39    10     1   ar
    40     9     3   ar
    41    18    12   ar
    42    25    19   ar
    43    34    29   ar
