@<TRIPOS>MOLECULE
*****
 35 40 0 0 0
SMALL
GASTEIGER

@<TRIPOS>ATOM
      1 C          63.7283   84.4917   13.8788 C.2     1  UNL1        0.1558
      2 N          64.5107   84.9803   15.0616 N.2     1  UNL1       -0.2402
      3 C          64.5771   86.4769   14.9872 C.2     1  UNL1        0.0929
      4 C          63.8358   86.9133   13.7584 C.2     1  UNL1        0.0093
      5 C          63.3112   85.6864   13.0733 C.3     1  UNL1        0.1374
      6 N          62.5215   85.8155   11.8046 N.pl3   1  UNL1       -0.3295
      7 C          62.2563   87.1716   11.2209 C.2     1  UNL1        0.0215
      8 C          62.7809   88.3986   11.9060 C.2     1  UNL1        0.0322
      9 C          62.5158   89.7547   11.3223 C.2     1  UNL1        0.1707
     10 O          63.0404   90.9817   12.0074 O.2     1  UNL1       -0.2916
     11 C          61.7261   89.8838   10.0536 C.3     1  UNL1        0.0693
     12 C          61.2015   88.6568    9.3686 C.3     1  UNL1        0.0141
     13 C          61.4666   87.3007    9.9522 C.3     1  UNL1        0.0411
     14 C          63.5707   88.2694   13.1747 C.3     1  UNL1        0.1049
     15 H          62.1772   85.0102   11.3550 H       1  UNL1        0.1471
     16 C          64.0952   89.4964   13.8598 C.ar    1  UNL1        0.1312
     17 C          63.6315   90.0351   15.1807 C.ar    1  UNL1        0.0373
     18 C          64.4254   91.2717   15.4815 C.ar    1  UNL1        0.0472
     19 C          65.3797   91.4974   14.3465 C.ar    1  UNL1        0.1774
     20 O          65.1757   90.4002   13.3442 O.2     1  UNL1       -0.4506
     21 S          66.3651   92.6227   14.2335 S.3     1  UNL1       -0.0117
     22 C          66.5192   93.3571   12.9348 C.2     1  UNL1        0.1967
     23 N          67.0873   92.7944   11.6658 N.2     1  UNL1       -0.2197
     24 C          67.0515   93.8727   10.6236 C.2     1  UNL1        0.0973
     25 C          67.4802   93.8941    9.1863 C.2     1  UNL1        0.0201
     26 C          67.3184   95.1448    8.3741 C.2     1  UNL1       -0.0026
     27 C          66.7281   96.3739    8.9991 C.2     1  UNL1       -0.0197
     28 C          66.2995   96.3525   10.4363 C.3     1  UNL1        0.0734
     29 C          66.4612   95.1019   11.2486 C.2     1  UNL1        0.0831
     30 N          66.1322   94.7832   12.6770 N.2     1  UNL1       -0.2234
     31 C          63.4176   83.0598   13.5577 C.2     1  UNL1        0.3569
     32 O          63.7996   81.9752   14.5209 O.2     1  UNL1       -0.2435
     33 O          62.7248   82.7124   12.2734 O.3     1  UNL1       -0.4446
     34 C          64.2739   83.0585   10.2166 C.3     1  UNL1        0.0513
     35 C          63.5092   82.1447   11.1277 C.3     1  UNL1        0.2089
@<TRIPOS>BOND
     1    34    35    1
     2    35    33    1
     3    33    31    1
     4    31    32    2
     5    31     1    1
     6     1     2    2
     7     2     3    1
     8     3     4    2
     9     4     5    1
    10     5     6    1
    11     6     7    1
    12     7     8    2
    13     8     9    1
    14     9    10    2
    15     9    11    1
    16    11    12    1
    17    12    13    1
    18     8    14    1
    19    14    16    1
    20    16    17   ar
    21    17    18   ar
    22    18    19   ar
    23    19    21    1
    24    21    22    1
    25    22    23    2
    26    23    24    1
    27    24    25    2
    28    25    26    1
    29    26    27    2
    30    27    28    1
    31    28    29    1
    32    29    30    2
    33    19    20   ar
    34     5     1    1
    35    13     7    1
    36    20    16   ar
    37    14     4    1
    38    30    22    1
    39    29    24    1
    40     6    15    1
@<TRIPOS>MOLECULE
*****
 35 40 0 0 0
SMALL
GASTEIGER

@<TRIPOS>ATOM
      1 C          60.8260   88.1886    9.4087 C.2     1  UNL1        0.1558
      2 N          60.9285   89.6805    9.5261 N.2     1  UNL1       -0.2402
      3 C          61.7938   89.9938   10.7106 C.2     1  UNL1        0.0929
      4 C          62.2260   88.6956   11.3253 C.2     1  UNL1        0.0093
      5 C          61.6279   87.5799   10.5206 C.3     1  UNL1        0.1374
      6 N          61.8907   86.1539   10.9044 N.pl3   1  UNL1       -0.3295
      7 C          62.7518   85.8435   12.0928 C.2     1  UNL1        0.0215
      8 C          63.3499   86.9592   12.8975 C.2     1  UNL1        0.0322
      9 C          64.2109   86.6488   14.0859 C.2     1  UNL1        0.1707
     10 O          64.8090   87.7645   14.8905 O.2     1  UNL1       -0.2916
     11 C          64.4737   85.2228   14.4696 C.3     1  UNL1        0.0693
     12 C          63.8756   84.1071   13.6650 C.3     1  UNL1        0.0141
     13 C          63.0146   84.4174   12.4766 C.3     1  UNL1        0.0411
     14 C          63.0870   88.3853   12.5137 C.3     1  UNL1        0.1049
     15 H          61.4981   85.4216   10.3763 H       1  UNL1        0.1471
     16 C          63.6852   89.5009   13.3183 C.ar    1  UNL1        0.1312
     17 C          63.2365   89.9458   14.6787 C.ar    1  UNL1        0.0373
     18 C          64.1110   91.0875   15.1050 C.ar    1  UNL1        0.0472
     19 C          65.1003   91.3482   14.0080 C.ar    1  UNL1        0.1774
     20 O          64.8371   90.3677   12.9038 O.2     1  UNL1       -0.4506
     21 S          66.1657   92.4041   14.0142 S.3     1  UNL1       -0.0117
     22 C          66.4150   93.2251   12.7839 C.2     1  UNL1        0.1967
     23 N          66.1239   94.6881   12.6262 N.2     1  UNL1       -0.2197
     24 C          66.5283   95.0945   11.2400 C.2     1  UNL1        0.0973
     25 C          66.4738   96.4114   10.5241 C.2     1  UNL1        0.0201
     26 C          66.9603   96.5164    9.1090 C.2     1  UNL1       -0.0026
     27 C          67.5013   95.3046    8.4100 C.2     1  UNL1       -0.0197
     28 C          67.5558   93.9876    9.1260 C.3     1  UNL1        0.0734
     29 C          67.0693   93.8826   10.5410 C.2     1  UNL1        0.0831
     30 N          66.9993   92.7272   11.4952 N.2     1  UNL1       -0.2234
     31 C          60.0566   87.4373    8.3629 C.2     1  UNL1        0.3569
     32 O          59.0926   88.1650    7.4735 O.2     1  UNL1       -0.2435
     33 O          60.2512   85.9582    8.2066 O.3     1  UNL1       -0.4446
     34 C          62.6746   85.1279    7.7735 C.3     1  UNL1        0.0513
     35 C          61.2964   85.4343    7.2669 C.3     1  UNL1        0.2089
@<TRIPOS>BOND
     1    34    35    1
     2    35    33    1
     3    33    31    1
     4    31    32    2
     5    31     1    1
     6     1     2    2
     7     2     3    1
     8     3     4    2
     9     4     5    1
    10     5     6    1
    11     6     7    1
    12     7     8    2
    13     8     9    1
    14     9    10    2
    15     9    11    1
    16    11    12    1
    17    12    13    1
    18     8    14    1
    19    14    16    1
    20    16    17   ar
    21    17    18   ar
    22    18    19   ar
    23    19    21    1
    24    21    22    1
    25    22    23    2
    26    23    24    1
    27    24    25    2
    28    25    26    1
    29    26    27    2
    30    27    28    1
    31    28    29    1
    32    29    30    2
    33    19    20   ar
    34     5     1    1
    35    13     7    1
    36    20    16   ar
    37    14     4    1
    38    30    22    1
    39    29    24    1
    40     6    15    1
@<TRIPOS>MOLECULE
*****
 35 40 0 0 0
SMALL
GASTEIGER

@<TRIPOS>ATOM
      1 C          66.0767   93.4390   12.2198 C.2     1  UNL1        0.1558
      2 N          66.5962   93.1246   13.5914 N.2     1  UNL1       -0.2402
      3 C          65.8906   91.8960   14.0839 C.2     1  UNL1        0.0929
      4 C          64.9350   91.4510   13.0167 C.2     1  UNL1        0.0093
      5 C          65.0501   92.4046   11.8646 C.3     1  UNL1        0.1374
      6 N          64.2051   92.2079   10.6410 N.pl3   1  UNL1       -0.3295
      7 C          63.2451   91.0576   10.5694 C.2     1  UNL1        0.0215
      8 C          63.1300   90.1040   11.7216 C.2     1  UNL1        0.0322
      9 C          62.1700   88.9537   11.6501 C.2     1  UNL1        0.1707
     10 O          62.0550   88.0001   12.8022 O.2     1  UNL1       -0.2916
     11 C          61.3251   88.7569   10.4264 C.3     1  UNL1        0.0693
     12 C          61.4401   89.7105    9.2743 C.3     1  UNL1        0.0141
     13 C          62.4001   90.8609    9.3458 C.3     1  UNL1        0.0411
     14 C          63.9750   90.3007   12.9452 C.3     1  UNL1        0.1049
     15 H          64.2806   92.8338    9.8848 H       1  UNL1        0.1471
     16 C          63.8600   89.3471   14.0974 C.ar    1  UNL1        0.1312
     17 C          63.3424   89.6764   15.4662 C.ar    1  UNL1        0.0373
     18 C          63.4048   88.4296   16.2978 C.ar    1  UNL1        0.0472
     19 C          63.9610   87.3297   15.4429 C.ar    1  UNL1        0.1774
     20 O          64.2423   87.8967   14.0830 O.2     1  UNL1       -0.4506
     21 S          64.1949   85.9117   15.8725 S.3     1  UNL1       -0.0117
     22 C          63.8954   84.7836   14.9305 C.2     1  UNL1        0.1967
     23 N          63.4324   83.4105   15.3181 N.2     1  UNL1       -0.2197
     24 C          63.2572   82.6087   14.0625 C.2     1  UNL1        0.0973
     25 C          62.8204   81.1929   13.8285 C.2     1  UNL1        0.0201
     26 C          62.7385   80.6547   12.4307 C.2     1  UNL1       -0.0026
     27 C          63.0932   81.5322   11.2672 C.2     1  UNL1       -0.0197
     28 C          63.5299   82.9480   11.5012 C.3     1  UNL1        0.0734
     29 C          63.6119   83.4862   12.8989 C.2     1  UNL1        0.0831
     30 N          64.0064   84.8304   13.4353 N.2     1  UNL1       -0.2234
     31 C          66.5081   94.5862   11.3551 C.2     1  UNL1        0.3569
     32 O          65.7995   95.9048   11.4500 O.2     1  UNL1       -0.2435
     33 O          67.6482   94.4149   10.3955 O.3     1  UNL1       -0.4446
     34 C          68.6440   92.3571    9.1610 C.3     1  UNL1        0.0513
     35 C          67.5636   93.3874    9.3059 C.3     1  UNL1        0.2089
@<TRIPOS>BOND
     1    34    35    1
     2    35    33    1
     3    33    31    1
     4    31    32    2
     5    31     1    1
     6     1     2    2
     7     2     3    1
     8     3     4    2
     9     4     5    1
    10     5     6    1
    11     6     7    1
    12     7     8    2
    13     8     9    1
    14     9    10    2
    15     9    11    1
    16    11    12    1
    17    12    13    1
    18     8    14    1
    19    14    16    1
    20    16    17   ar
    21    17    18   ar
    22    18    19   ar
    23    19    21    1
    24    21    22    1
    25    22    23    2
    26    23    24    1
    27    24    25    2
    28    25    26    1
    29    26    27    2
    30    27    28    1
    31    28    29    1
    32    29    30    2
    33    19    20   ar
    34     5     1    1
    35    13     7    1
    36    20    16   ar
    37    14     4    1
    38    30    22    1
    39    29    24    1
    40     6    15    1
@<TRIPOS>MOLECULE
*****
 35 40 0 0 0
SMALL
GASTEIGER

@<TRIPOS>ATOM
      1 C          66.6896   92.9972   11.4646 C.2     1  UNL1        0.1558
      2 N          67.2565   92.7987   12.8391 N.2     1  UNL1       -0.2402
      3 C          66.3244   91.9029   13.5999 C.2     1  UNL1        0.0929
      4 C          65.1815   91.5478   12.6956 C.2     1  UNL1        0.0093
      5 C          65.4072   92.2241   11.3759 C.3     1  UNL1        0.1374
      6 N          64.4159   92.0487   10.2640 N.pl3   1  UNL1       -0.3295
      7 C          63.1988   91.1968   10.4717 C.2     1  UNL1        0.0215
      8 C          62.9731   90.5205   11.7914 C.2     1  UNL1        0.0322
      9 C          61.7560   89.6687   11.9992 C.2     1  UNL1        0.1707
     10 O          61.5303   88.9923   13.3189 O.2     1  UNL1       -0.2916
     11 C          60.7647   89.4932   10.8873 C.3     1  UNL1        0.0693
     12 C          60.9904   90.1696    9.5676 C.3     1  UNL1        0.0141
     13 C          62.2074   91.0214    9.3598 C.3     1  UNL1        0.0411
     14 C          63.9645   90.6960   12.9034 C.3     1  UNL1        0.1049
     15 H          64.5640   92.4926    9.3978 H       1  UNL1        0.1471
     16 C          63.7388   90.0196   14.2231 C.ar    1  UNL1        0.1312
     17 C          63.3916   90.6995   15.5143 C.ar    1  UNL1        0.0373
     18 C          63.2589   89.6447   16.5725 C.ar    1  UNL1        0.0472
     19 C          63.5241   88.3129   15.9353 C.ar    1  UNL1        0.1774
     20 O          63.8207   88.5447   14.4833 O.2     1  UNL1       -0.4506
     21 S          63.4974   86.9830   16.6285 S.3     1  UNL1       -0.0117
     22 C          63.4036   85.7201   15.8246 C.2     1  UNL1        0.1967
     23 N          64.4260   85.2182   14.8486 N.2     1  UNL1       -0.2197
     24 C          63.9252   83.9252   14.2763 C.2     1  UNL1        0.0973
     25 C          64.5100   82.9801   13.2690 C.2     1  UNL1        0.0201
     26 C          63.7626   81.7378   12.8841 C.2     1  UNL1       -0.0026
     27 C          62.4307   81.4406   13.5064 C.2     1  UNL1       -0.0197
     28 C          61.8459   82.3857   14.5138 C.3     1  UNL1        0.0734
     29 C          62.5931   83.6280   14.8987 C.2     1  UNL1        0.0831
     30 N          62.2708   84.7373   15.8556 N.2     1  UNL1       -0.2234
     31 C          67.2982   93.8237   10.3708 C.2     1  UNL1        0.3569
     32 O          68.4775   93.3022    9.6043 O.2     1  UNL1       -0.2435
     33 O          66.7276   95.1718   10.0434 O.3     1  UNL1       -0.4446
     34 C          64.9173   96.8551   10.8429 C.3     1  UNL1        0.0513
     35 C          66.1273   96.0159   11.1284 C.3     1  UNL1        0.2089
@<TRIPOS>BOND
     1    34    35    1
     2    35    33    1
     3    33    31    1
     4    31    32    2
     5    31     1    1
     6     1     2    2
     7     2     3    1
     8     3     4    2
     9     4     5    1
    10     5     6    1
    11     6     7    1
    12     7     8    2
    13     8     9    1
    14     9    10    2
    15     9    11    1
    16    11    12    1
    17    12    13    1
    18     8    14    1
    19    14    16    1
    20    16    17   ar
    21    17    18   ar
    22    18    19   ar
    23    19    21    1
    24    21    22    1
    25    22    23    2
    26    23    24    1
    27    24    25    2
    28    25    26    1
    29    26    27    2
    30    27    28    1
    31    28    29    1
    32    29    30    2
    33    19    20   ar
    34     5     1    1
    35    13     7    1
    36    20    16   ar
    37    14     4    1
    38    30    22    1
    39    29    24    1
    40     6    15    1
