@<TRIPOS>MOLECULE
*****
 34 38 0 0 0
SMALL
GASTEIGER

@<TRIPOS>ATOM
      1 C          60.0459   87.8296    9.3082 C.3     1  UNL1        0.1350
      2 C          61.0211   87.0030   10.0929 C.3     1  UNL1        0.1231
      3 N          61.8219   87.6322   11.1942 N.am    1  UNL1       -0.2724
      4 C          62.7970   86.8055   11.9789 C.2     1  UNL1        0.2506
      5 O          63.5978   87.4347   13.0803 O.2     1  UNL1       -0.2699
      6 C          61.6475   89.0880   11.5109 C.3     1  UNL1        0.1096
      7 C          60.6724   89.9146   10.7262 C.3     1  UNL1        0.1621
      8 O          59.8716   89.2854    9.6249 O.3     1  UNL1       -0.3527
      9 C          62.9714   85.3497   11.6623 C.ar    1  UNL1        0.0729
     10 C          63.0128   84.8925   10.2343 C.ar    1  UNL1        0.0058
     11 C          63.1872   83.4366    9.9177 C.ar    1  UNL1       -0.0040
     12 C          63.3201   82.4381   11.0291 C.ar    1  UNL1       -0.0203
     13 C          63.4945   80.9824   10.7124 C.3     1  UNL1        0.0311
     14 C          63.2787   82.8953   12.4571 C.ar    1  UNL1        0.0168
     15 C          63.1043   84.3511   12.7737 C.ar    1  UNL1        0.1069
     16 N          63.0629   84.8083   14.2017 N.ar    1  UNL1       -0.1477
     17 N          64.2196   85.3509   14.9877 N.ar    1  UNL1       -0.1447
     18 C          63.7290   85.6811   16.3663 C.ar    1  UNL1        0.1446
     19 C          62.2692   85.3428   16.4322 C.ar    1  UNL1        0.1446
     20 N          61.8575   84.8033   15.0945 N.ar    1  UNL1       -0.1447
     21 C          59.7928   86.0194    7.4619 C.3     1  UNL1        0.0026
     22 C          59.2451   87.2005    8.2069 C.3     1  UNL1        0.0313
     23 C          62.4483   89.7171   12.6122 C.3     1  UNL1        0.0488
     24 C          63.5554   90.6738   12.2821 C.ar    1  UNL1       -0.0189
     25 C          63.6552   91.2591   10.9046 C.ar    1  UNL1       -0.0041
     26 C          64.7623   92.2158   10.5746 C.ar    1  UNL1        0.0013
     27 C          65.7698   92.5872   11.6220 C.ar    1  UNL1        0.0209
     28 C          65.6701   92.0019   12.9995 C.ar    1  UNL1        0.1026
     29 C          64.5629   91.0452   13.3296 C.ar    1  UNL1        0.0167
     30 N          66.6775   92.3733   14.0469 N.ar    1  UNL1       -0.1478
     31 N          66.3706   92.8573   15.4331 N.ar    1  UNL1       -0.1447
     32 C          67.6722   93.1091   16.1350 C.ar    1  UNL1        0.1446
     33 C          68.7835   92.7806   15.1826 C.ar    1  UNL1        0.1446
     34 N          68.1687   92.3259   13.8921 N.ar    1  UNL1       -0.1447
@<TRIPOS>BOND
     1    21    22    1
     2     1    22    1
     3     1     2    1
     4     2     3    1
     5     3     4   am
     6     4     5    2
     7     4     9    1
     8     9    10   ar
     9    10    11   ar
    10    11    12   ar
    11    12    13    1
    12    12    14   ar
    13    14    15   ar
    14    15    16    1
    15    16    17   ar
    16    17    18   ar
    17    18    19   ar
    18    19    20   ar
    19     3     6    1
    20     6    23    1
    21    23    24    1
    22    24    25   ar
    23    25    26   ar
    24    26    27   ar
    25    27    28   ar
    26    28    30    1
    27    30    31   ar
    28    31    32   ar
    29    32    33   ar
    30    33    34   ar
    31    28    29   ar
    32     6     7    1
    33     7     8    1
    34     8     1    1
    35    15     9   ar
    36    20    16   ar
    37    29    24   ar
    38    34    30   ar
@<TRIPOS>MOLECULE
*****
 34 38 0 0 0
SMALL
GASTEIGER

@<TRIPOS>ATOM
      1 C          61.0786   88.8060    9.6142 C.3     1  UNL1        0.1350
      2 C          61.7574   87.7767   10.4686 C.3     1  UNL1        0.1231
      3 N          62.4286   88.1866   11.7459 N.am    1  UNL1       -0.2724
      4 C          63.1073   87.1573   12.6003 C.2     1  UNL1        0.2506
      5 O          63.7785   87.5671   13.8776 O.2     1  UNL1       -0.2699
      6 C          62.4211   89.6257   12.1688 C.3     1  UNL1        0.1096
      7 C          61.7424   90.6549   11.3145 C.3     1  UNL1        0.1621
      8 O          61.0712   90.2451   10.0372 O.3     1  UNL1       -0.3527
      9 C          63.1148   85.7182   12.1773 C.ar    1  UNL1        0.0729
     10 C          63.1517   85.3649   10.7200 C.ar    1  UNL1        0.0058
     11 C          63.1592   83.9257   10.2971 C.ar    1  UNL1       -0.0040
     12 C          63.1298   82.8399   11.3315 C.ar    1  UNL1       -0.0203
     13 C          63.1372   81.4008   10.9086 C.3     1  UNL1        0.0311
     14 C          63.0929   83.1932   12.7889 C.ar    1  UNL1        0.0168
     15 C          63.0854   84.6322   13.2118 C.ar    1  UNL1        0.1069
     16 N          63.0485   84.9855   14.6691 N.ar    1  UNL1       -0.1477
     17 N          64.2304   85.3490   15.5184 N.ar    1  UNL1       -0.1447
     18 C          63.7355   85.6254   16.9073 C.ar    1  UNL1        0.1446
     19 C          62.2480   85.4328   16.9163 C.ar    1  UNL1        0.1446
     20 N          61.8234   85.0373   15.5331 N.ar    1  UNL1       -0.1447
     21 C          59.9591   86.9774    8.1470 C.3     1  UNL1        0.0026
     22 C          60.4074   88.3961    8.3370 C.3     1  UNL1        0.0313
     23 C          63.0923   90.0355   13.4461 C.3     1  UNL1        0.0488
     24 C          64.3964   90.7754   13.4042 C.ar    1  UNL1       -0.0189
     25 C          65.3844   90.6179   14.5218 C.ar    1  UNL1       -0.0041
     26 C          66.6885   91.3578   14.4799 C.ar    1  UNL1        0.0013
     27 C          67.0047   92.2553   13.3203 C.ar    1  UNL1        0.0209
     28 C          66.0168   92.4128   12.2027 C.ar    1  UNL1        0.1026
     29 C          64.7126   91.6729   12.2446 C.ar    1  UNL1        0.0167
     30 N          66.3330   93.3102   11.0431 N.ar    1  UNL1       -0.1478
     31 N          65.5877   94.5553   10.6629 N.ar    1  UNL1       -0.1447
     32 C          66.2440   95.1347    9.4449 C.ar    1  UNL1        0.1446
     33 C          67.3950   94.2479    9.0723 C.ar    1  UNL1        0.1446
     34 N          67.4499   93.1203   10.0601 N.ar    1  UNL1       -0.1447
@<TRIPOS>BOND
     1    21    22    1
     2     1    22    1
     3     1     2    1
     4     2     3    1
     5     3     4   am
     6     4     5    2
     7     4     9    1
     8     9    10   ar
     9    10    11   ar
    10    11    12   ar
    11    12    13    1
    12    12    14   ar
    13    14    15   ar
    14    15    16    1
    15    16    17   ar
    16    17    18   ar
    17    18    19   ar
    18    19    20   ar
    19     3     6    1
    20     6    23    1
    21    23    24    1
    22    24    25   ar
    23    25    26   ar
    24    26    27   ar
    25    27    28   ar
    26    28    30    1
    27    30    31   ar
    28    31    32   ar
    29    32    33   ar
    30    33    34   ar
    31    28    29   ar
    32     6     7    1
    33     7     8    1
    34     8     1    1
    35    15     9   ar
    36    20    16   ar
    37    29    24   ar
    38    34    30   ar
@<TRIPOS>MOLECULE
*****
 34 38 0 0 0
SMALL
GASTEIGER

@<TRIPOS>ATOM
      1 C          64.0478   85.5801   13.9112 C.3     1  UNL1        0.1350
      2 C          63.4017   86.3050   12.7680 C.3     1  UNL1        0.1231
      3 N          63.3672   87.8046   12.7544 N.am    1  UNL1       -0.2724
      4 C          62.7210   88.5295   11.6111 C.2     1  UNL1        0.2506
      5 O          62.6864   90.0291   11.5975 O.2     1  UNL1       -0.2699
      6 C          63.9786   88.5792   13.8840 C.3     1  UNL1        0.1096
      7 C          64.6247   87.8542   15.0272 C.3     1  UNL1        0.1621
      8 O          64.6593   86.3547   15.0408 O.3     1  UNL1       -0.3527
      9 C          62.1095   87.7549   10.4815 C.ar    1  UNL1        0.0729
     10 C          62.9380   86.7676    9.7141 C.ar    1  UNL1        0.0058
     11 C          62.3264   85.9930    8.5845 C.ar    1  UNL1       -0.0040
     12 C          60.8865   86.2057    8.2222 C.ar    1  UNL1       -0.0203
     13 C          60.2750   85.4311    7.0926 C.3     1  UNL1        0.0311
     14 C          60.0580   87.1931    8.9896 C.ar    1  UNL1        0.0168
     15 C          60.6695   87.9676   10.1192 C.ar    1  UNL1        0.1069
     16 N          59.8411   88.9550   10.8866 N.ar    1  UNL1       -0.1477
     17 N          59.0896   88.6781   12.1550 N.ar    1  UNL1       -0.1447
     18 C          58.4027   89.9446   12.5726 C.ar    1  UNL1        0.1446
     19 C          58.7297   91.0041   11.5623 C.ar    1  UNL1        0.1446
     20 N          59.6186   90.3925   10.5204 N.ar    1  UNL1       -0.1447
     21 C          64.2267   83.3220   12.6389 C.3     1  UNL1        0.0026
     22 C          64.0824   84.0805   13.9248 C.3     1  UNL1        0.0313
     23 C          63.9441   90.0787   13.8704 C.3     1  UNL1        0.0488
     24 C          65.2238   90.8578   13.7976 C.ar    1  UNL1       -0.0189
     25 C          66.1670   90.8614   14.9639 C.ar    1  UNL1       -0.0041
     26 C          67.4467   91.6405   14.8911 C.ar    1  UNL1        0.0013
     27 C          67.7832   92.4160   13.6520 C.ar    1  UNL1        0.0209
     28 C          66.8400   92.4124   12.4857 C.ar    1  UNL1        0.1026
     29 C          65.5603   91.6333   12.5585 C.ar    1  UNL1        0.0167
     30 N          67.1765   93.1879   11.2466 N.ar    1  UNL1       -0.1478
     31 N          66.8601   94.6328   10.9977 N.ar    1  UNL1       -0.1447
     32 C          67.3765   94.9926    9.6361 C.ar    1  UNL1        0.1446
     33 C          68.0122   93.7700    9.0435 C.ar    1  UNL1        0.1446
     34 N          67.8886   92.6546   10.0389 N.ar    1  UNL1       -0.1447
@<TRIPOS>BOND
     1    21    22    1
     2     1    22    1
     3     1     2    1
     4     2     3    1
     5     3     4   am
     6     4     5    2
     7     4     9    1
     8     9    10   ar
     9    10    11   ar
    10    11    12   ar
    11    12    13    1
    12    12    14   ar
    13    14    15   ar
    14    15    16    1
    15    16    17   ar
    16    17    18   ar
    17    18    19   ar
    18    19    20   ar
    19     3     6    1
    20     6    23    1
    21    23    24    1
    22    24    25   ar
    23    25    26   ar
    24    26    27   ar
    25    27    28   ar
    26    28    30    1
    27    30    31   ar
    28    31    32   ar
    29    32    33   ar
    30    33    34   ar
    31    28    29   ar
    32     6     7    1
    33     7     8    1
    34     8     1    1
    35    15     9   ar
    36    20    16   ar
    37    29    24   ar
    38    34    30   ar
