@<TRIPOS>MOLECULE
*****
 35 38 0 0 0
SMALL
GASTEIGER

@<TRIPOS>ATOM
      1 C          65.3304   91.7395   13.6542 C.ar    1  UNL1       -0.0044
      2 C          65.6101   90.7358   14.7331 C.ar    1  UNL1       -0.0014
      3 C          65.0266   89.3568   14.6442 C.ar    1  UNL1        0.0144
      4 C          64.1635   88.9815   13.4762 C.ar    1  UNL1        0.0516
      5 C          63.8838   89.9853   12.3972 C.ar    1  UNL1        0.0144
      6 C          64.4673   91.3643   12.4861 C.ar    1  UNL1       -0.0014
      7 N          63.5801   87.6025   13.3873 N.am    1  UNL1       -0.2681
      8 C          64.2053   86.4729   14.1508 C.2     1  UNL1        0.3077
      9 O          65.4140   86.7223   15.0033 O.2     1  UNL1       -0.2522
     10 N          63.6218   85.0939   14.0619 N.am    1  UNL1       -0.2632
     11 C          63.9580   83.7594   14.6587 C.3     1  UNL1        0.1010
     12 C          62.7967   83.1437   13.9361 C.3     1  UNL1        0.0636
     13 C          62.4605   84.4781   13.3392 C.3     1  UNL1        0.1010
     14 H          62.7867   87.4388   12.8277 H       1  UNL1        0.1564
     15 C          62.2133   81.7647   13.8471 C.ar    1  UNL1        0.0012
     16 C          63.0549   80.6245   13.3557 C.ar    1  UNL1        0.0948
     17 N          62.4715   79.2455   13.2667 N.ar    1  UNL1       -0.2414
     18 C          61.0464   79.0067   13.6692 C.ar    1  UNL1        0.1129
     19 C          60.2047   80.1469   14.1606 C.ar    1  UNL1        0.0607
     20 N          58.7796   79.9081   14.5631 N.pl3   1  UNL1       -0.3558
     21 C          60.7882   81.5259   14.2496 C.ar    1  UNL1        0.0130
     22 H          58.3966   79.0030   14.5047 H       1  UNL1        0.1424
     23 H          58.2272   80.6564   14.8856 H       1  UNL1        0.1424
     24 C          66.6339   93.5495   14.9864 C.3     1  UNL1        0.0262
     25 C          65.9139   93.1185   13.7431 C.3     1  UNL1        0.0941
     26 N          65.7772   94.0666   12.5887 N.am    1  UNL1       -0.3022
     27 C          66.6605   93.9159   11.3858 C.2     1  UNL1        0.2223
     28 O          67.6805   92.8172   11.3372 O.2     1  UNL1       -0.2751
     29 H          65.1077   94.7878   12.6206 H       1  UNL1        0.1497
     30 C          66.5238   94.8640   10.2314 C.3     1  UNL1        0.0815
     31 C          65.4459   95.9070   10.2411 C.3     1  UNL1        0.0412
     32 C          65.3093   96.8551    9.0867 C.3     1  UNL1        0.1427
     33 O          66.2506   96.7601    7.9227 O.3     1  UNL1       -0.3538
     34 C          67.3285   95.7170    7.9131 C.3     1  UNL1        0.1427
     35 C          67.4652   94.7690    9.0674 C.3     1  UNL1        0.0412
@<TRIPOS>BOND
     1    25    24    1
     2    25    26    1
     3    26    27   am
     4    27    28    2
     5    27    30    1
     6    30    31    1
     7    31    32    1
     8    32    33    1
     9    33    34    1
    10    34    35    1
    11    25     1    1
    12     1     2   ar
    13     2     3   ar
    14     3     4   ar
    15     4     7    1
    16     7     8   am
    17     8     9    2
    18     8    10   am
    19    10    11    1
    20    11    12    1
    21    12    15    1
    22    15    16   ar
    23    16    17   ar
    24    17    18   ar
    25    18    19   ar
    26    19    20    1
    27    19    21   ar
    28    12    13    1
    29     4     5   ar
    30     5     6   ar
    31    35    30    1
    32     6     1   ar
    33    13    10    1
    34    21    15   ar
    35    26    29    1
    36     7    14    1
    37    20    22    1
    38    20    23    1
@<TRIPOS>MOLECULE
*****
 35 38 0 0 0
SMALL
GASTEIGER

@<TRIPOS>ATOM
      1 C          59.8309   91.3786    4.7063 C.ar    1  UNL1       -0.0044
      2 C          61.2598   90.9613    4.5222 C.ar    1  UNL1       -0.0014
      3 C          62.0740   91.5454    3.4060 C.ar    1  UNL1        0.0144
      4 C          61.4592   92.5470    2.4739 C.ar    1  UNL1        0.0516
      5 C          60.0302   92.9644    2.6579 C.ar    1  UNL1        0.0144
      6 C          59.2160   92.3802    3.7741 C.ar    1  UNL1       -0.0014
      7 N          62.2734   93.1312    1.3577 N.am    1  UNL1       -0.2681
      8 C          61.8907   92.8659   -0.0682 C.2     1  UNL1        0.3077
      9 O          60.6938   92.0165   -0.3778 O.2     1  UNL1       -0.2522
     10 N          62.7048   93.4501   -1.1844 N.am    1  UNL1       -0.2632
     11 C          62.6356   93.4081   -2.6822 C.3     1  UNL1        0.1010
     12 C          63.8562   94.2763   -2.7629 C.3     1  UNL1        0.0636
     13 C          63.9254   94.3183   -1.2651 C.3     1  UNL1        0.1010
     14 H          63.0589   93.6887    1.5610 H       1  UNL1        0.1564
     15 C          64.6703   94.8605   -3.8791 C.ar    1  UNL1        0.0012
     16 C          65.1991   96.2598   -3.7689 C.ar    1  UNL1        0.0948
     17 N          66.0132   96.8440   -4.8851 N.ar    1  UNL1       -0.2414
     18 C          66.2986   96.0289   -6.1114 C.ar    1  UNL1        0.1129
     19 C          65.7699   94.6295   -6.2216 C.ar    1  UNL1        0.0607
     20 N          66.0553   93.8143   -7.4480 N.pl3   1  UNL1       -0.3558
     21 C          64.9557   94.0453   -5.1054 C.ar    1  UNL1        0.0130
     22 H          66.5896   94.1977   -8.1806 H       1  UNL1        0.1424
     23 H          65.7082   92.8958   -7.5203 H       1  UNL1        0.1424
     24 C          57.5462   90.5639    5.6371 C.3     1  UNL1        0.0262
     25 C          59.0168   90.7944    5.8225 C.3     1  UNL1        0.0941
     26 N          59.6732   90.4407    7.1240 N.am    1  UNL1       -0.3022
     27 C          59.6384   89.0261    7.6216 C.2     1  UNL1        0.2223
     28 O          58.9471   87.9651    6.8176 O.2     1  UNL1       -0.2751
     29 H          60.1269   91.1371    7.6518 H       1  UNL1        0.1497
     30 C          60.2948   88.6724    8.9232 C.3     1  UNL1        0.0815
     31 C          60.4917   89.7244    9.9741 C.3     1  UNL1        0.0412
     32 C          61.1481   89.3707   11.2756 C.3     1  UNL1        0.1427
     33 O          61.6076   87.9650   11.5262 O.3     1  UNL1       -0.3538
     34 C          61.4107   86.9130   10.4753 C.3     1  UNL1        0.1427
     35 C          60.7543   87.2667    9.1737 C.3     1  UNL1        0.0412
@<TRIPOS>BOND
     1    25    24    1
     2    25    26    1
     3    26    27   am
     4    27    28    2
     5    27    30    1
     6    30    31    1
     7    31    32    1
     8    32    33    1
     9    33    34    1
    10    34    35    1
    11    25     1    1
    12     1     2   ar
    13     2     3   ar
    14     3     4   ar
    15     4     7    1
    16     7     8   am
    17     8     9    2
    18     8    10   am
    19    10    11    1
    20    11    12    1
    21    12    15    1
    22    15    16   ar
    23    16    17   ar
    24    17    18   ar
    25    18    19   ar
    26    19    20    1
    27    19    21   ar
    28    12    13    1
    29     4     5   ar
    30     5     6   ar
    31    35    30    1
    32     6     1   ar
    33    13    10    1
    34    21    15   ar
    35    26    29    1
    36     7    14    1
    37    20    22    1
    38    20    23    1
@<TRIPOS>MOLECULE
*****
 35 38 0 0 0
SMALL
GASTEIGER

@<TRIPOS>ATOM
      1 C          59.0853   95.0796   -0.1593 C.ar    1  UNL1       -0.0044
      2 C          58.6739   93.6379   -0.2041 C.ar    1  UNL1       -0.0014
      3 C          58.9918   92.7311    0.9477 C.ar    1  UNL1        0.0144
      4 C          59.7211   93.2661    2.1443 C.ar    1  UNL1        0.0516
      5 C          60.1325   94.7079    2.1891 C.ar    1  UNL1        0.0144
      6 C          59.8146   95.6147    1.0373 C.ar    1  UNL1       -0.0014
      7 N          60.0391   92.3593    3.2961 N.am    1  UNL1       -0.2681
      8 C          58.9325   91.8171    4.1514 C.2     1  UNL1        0.3077
      9 O          57.5081   92.1817    3.8550 O.2     1  UNL1       -0.2522
     10 N          59.2505   90.9103    5.3032 N.am    1  UNL1       -0.2632
     11 C          58.4420   90.1966    6.3459 C.3     1  UNL1        0.1010
     12 C          59.7001   89.6279    6.9321 C.3     1  UNL1        0.0636
     13 C          60.5086   90.3416    5.8896 C.3     1  UNL1        0.1010
     14 H          60.9740   92.1199    3.4907 H       1  UNL1        0.1564
     15 C          60.0180   88.7212    8.0839 C.ar    1  UNL1        0.0012
     16 C          60.0174   87.2338    7.8899 C.ar    1  UNL1        0.0948
     17 N          60.3354   86.3270    9.0417 N.ar    1  UNL1       -0.2414
     18 C          60.6539   86.9076   10.3876 C.ar    1  UNL1        0.1129
     19 C          60.6545   88.3949   10.5816 C.ar    1  UNL1        0.0607
     20 N          60.9730   88.9756   11.9275 N.pl3   1  UNL1       -0.3558
     21 C          60.3366   89.3017    9.4298 C.ar    1  UNL1        0.0130
     22 H          61.1817   88.3805   12.6835 H       1  UNL1        0.1424
     23 H          60.9734   89.9518   12.0549 H       1  UNL1        0.1424
     24 C          59.8778   96.6129   -2.1012 C.3     1  UNL1        0.0262
     25 C          58.7673   95.9864   -1.3111 C.3     1  UNL1        0.0941
     26 N          57.3388   96.2667   -1.6728 N.am    1  UNL1       -0.3022
     27 C          56.6190   95.3695   -2.6355 C.2     1  UNL1        0.2223
     28 O          57.3276   94.1920   -3.2365 O.2     1  UNL1       -0.2751
     29 H          56.8737   97.0396   -1.2784 H       1  UNL1        0.1497
     30 C          55.1904   95.6499   -2.9972 C.3     1  UNL1        0.0815
     31 C          54.8200   95.9373   -4.4221 C.3     1  UNL1        0.0412
     32 C          53.3916   96.2175   -4.7837 C.3     1  UNL1        0.1427
     33 O          52.3335   96.2105   -3.7205 O.3     1  UNL1       -0.3538
     34 C          52.7038   95.9231   -2.2957 C.3     1  UNL1        0.1427
     35 C          54.1323   95.6428   -1.9341 C.3     1  UNL1        0.0412
@<TRIPOS>BOND
     1    25    24    1
     2    25    26    1
     3    26    27   am
     4    27    28    2
     5    27    30    1
     6    30    31    1
     7    31    32    1
     8    32    33    1
     9    33    34    1
    10    34    35    1
    11    25     1    1
    12     1     2   ar
    13     2     3   ar
    14     3     4   ar
    15     4     7    1
    16     7     8   am
    17     8     9    2
    18     8    10   am
    19    10    11    1
    20    11    12    1
    21    12    15    1
    22    15    16   ar
    23    16    17   ar
    24    17    18   ar
    25    18    19   ar
    26    19    20    1
    27    19    21   ar
    28    12    13    1
    29     4     5   ar
    30     5     6   ar
    31    35    30    1
    32     6     1   ar
    33    13    10    1
    34    21    15   ar
    35    26    29    1
    36     7    14    1
    37    20    22    1
    38    20    23    1
@<TRIPOS>MOLECULE
*****
 35 38 0 0 0
SMALL
GASTEIGER

@<TRIPOS>ATOM
      1 C          65.4105   91.8160   13.8835 C.ar    1  UNL1       -0.0044
      2 C          65.7011   90.7677   14.9162 C.ar    1  UNL1       -0.0014
      3 C          65.0986   89.4001   14.7869 C.ar    1  UNL1        0.0144
      4 C          64.2055   89.0809   13.6249 C.ar    1  UNL1        0.0516
      5 C          63.9147   90.1292   12.5921 C.ar    1  UNL1        0.0144
      6 C          64.5172   91.4968   12.7214 C.ar    1  UNL1       -0.0014
      7 N          63.6030   87.7133   13.4956 N.am    1  UNL1       -0.2681
      8 C          64.2957   86.5283   14.1003 C.2     1  UNL1        0.3077
      9 O          65.5910   86.7108   14.8343 O.2     1  UNL1       -0.2522
     10 N          63.6933   85.1607   13.9710 N.am    1  UNL1       -0.2632
     11 C          64.0789   83.7844   14.4261 C.3     1  UNL1        0.1010
     12 C          62.8412   83.2267   13.7881 C.3     1  UNL1        0.0636
     13 C          62.4555   84.6029   13.3330 C.3     1  UNL1        0.1010
     14 H          62.7528   87.5935   13.0138 H       1  UNL1        0.1564
     15 C          62.2387   81.8591   13.6588 C.ar    1  UNL1        0.0012
     16 C          61.0681   81.4714   14.5128 C.ar    1  UNL1        0.0948
     17 N          60.4656   80.1038   14.3835 N.ar    1  UNL1       -0.2414
     18 C          61.0337   79.1239   13.4002 C.ar    1  UNL1        0.1129
     19 C          62.2043   79.5116   12.5462 C.ar    1  UNL1        0.0607
     20 N          62.7724   78.5316   11.5628 N.pl3   1  UNL1       -0.3558
     21 C          62.8068   80.8792   12.6755 C.ar    1  UNL1        0.0130
     22 H          62.3770   77.6340   11.4779 H       1  UNL1        0.1424
     23 H          63.5408   78.7861   11.0022 H       1  UNL1        0.1424
     24 C          66.7224   93.5743   15.2753 C.3     1  UNL1        0.0262
     25 C          66.0129   93.1836   14.0128 C.3     1  UNL1        0.0941
     26 N          65.9060   94.1605   12.8795 N.am    1  UNL1       -0.3022
     27 C          66.6703   93.9239   11.6107 C.2     1  UNL1        0.2223
     28 O          67.5417   92.7105   11.4752 O.2     1  UNL1       -0.2751
     29 H          65.3341   94.9569   12.9684 H       1  UNL1        0.1497
     30 C          66.5634   94.9008   10.4774 C.3     1  UNL1        0.0815
     31 C          67.5929   94.8996    9.3865 C.3     1  UNL1        0.0412
     32 C          67.4859   95.8765    8.2533 C.3     1  UNL1        0.1427
     33 O          66.3494   96.8545    8.2110 O.3     1  UNL1       -0.3538
     34 C          65.3199   96.8557    9.3018 C.3     1  UNL1        0.1427
     35 C          65.4269   95.8789   10.4351 C.3     1  UNL1        0.0412
@<TRIPOS>BOND
     1    25    24    1
     2    25    26    1
     3    26    27   am
     4    27    28    2
     5    27    30    1
     6    30    31    1
     7    31    32    1
     8    32    33    1
     9    33    34    1
    10    34    35    1
    11    25     1    1
    12     1     2   ar
    13     2     3   ar
    14     3     4   ar
    15     4     7    1
    16     7     8   am
    17     8     9    2
    18     8    10   am
    19    10    11    1
    20    11    12    1
    21    12    15    1
    22    15    16   ar
    23    16    17   ar
    24    17    18   ar
    25    18    19   ar
    26    19    20    1
    27    19    21   ar
    28    12    13    1
    29     4     5   ar
    30     5     6   ar
    31    35    30    1
    32     6     1   ar
    33    13    10    1
    34    21    15   ar
    35    26    29    1
    36     7    14    1
    37    20    22    1
    38    20    23    1
@<TRIPOS>MOLECULE
*****
 35 38 0 0 0
SMALL
GASTEIGER

@<TRIPOS>ATOM
      1 C          59.5884   90.0902    6.5474 C.ar    1  UNL1       -0.0044
      2 C          60.7943   90.5012    5.7557 C.ar    1  UNL1       -0.0014
      3 C          60.6287   91.3021    4.4983 C.ar    1  UNL1        0.0144
      4 C          59.2572   91.6920    4.0325 C.ar    1  UNL1        0.0516
      5 C          58.0512   91.2809    4.8242 C.ar    1  UNL1        0.0144
      6 C          58.2168   90.4801    6.0817 C.ar    1  UNL1       -0.0014
      7 N          59.0916   92.4928    2.7751 N.am    1  UNL1       -0.2681
      8 C          60.1892   92.5199    1.7531 C.2     1  UNL1        0.3077
      9 O          61.4524   91.7460    1.9886 O.2     1  UNL1       -0.2522
     10 N          60.0236   93.3207    0.4957 N.am    1  UNL1       -0.2632
     11 C          60.8704   93.5822   -0.7147 C.3     1  UNL1        0.1010
     12 C          59.7894   94.4533   -1.2826 C.3     1  UNL1        0.0636
     13 C          58.9427   94.1920   -0.0724 C.3     1  UNL1        0.1010
     14 H          58.2625   93.0007    2.6206 H       1  UNL1        0.1564
     15 C          59.6238   95.2542   -2.5401 C.ar    1  UNL1        0.0012
     16 C          60.7735   96.0546   -3.0764 C.ar    1  UNL1        0.0948
     17 N          60.6079   96.8555   -4.3338 N.ar    1  UNL1       -0.2414
     18 C          59.2926   96.8560   -5.0550 C.ar    1  UNL1        0.1129
     19 C          58.1430   96.0556   -4.5187 C.ar    1  UNL1        0.0607
     20 N          56.8277   96.0560   -5.2399 N.pl3   1  UNL1       -0.3558
     21 C          58.3086   95.2547   -3.2612 C.ar    1  UNL1        0.0130
     22 H          56.7190   96.5816   -6.0652 H       1  UNL1        0.1424
     23 H          56.0731   95.5306   -4.8879 H       1  UNL1        0.1424
     24 C          59.0662   87.9638    7.9459 C.3     1  UNL1        0.0262
     25 C          59.7540   89.2893    7.8049 C.3     1  UNL1        0.0941
     26 N          60.6075   89.8140    8.9213 N.am    1  UNL1       -0.3022
     27 C          61.6214   88.9215    9.5734 C.2     1  UNL1        0.2223
     28 O          61.7820   87.5042    9.1090 O.2     1  UNL1       -0.2751
     29 H          60.5021   90.7442    9.2261 H       1  UNL1        0.1497
     30 C          62.4749   89.4462   10.6898 C.3     1  UNL1        0.0815
     31 C          62.7807   88.5760   11.8727 C.3     1  UNL1        0.0412
     32 C          63.6341   89.1007   12.9891 C.3     1  UNL1        0.1427
     33 O          64.1817   90.4956   12.9226 O.3     1  UNL1       -0.3538
     34 C          63.8759   91.3658   11.7397 C.3     1  UNL1        0.1427
     35 C          63.0225   90.8411   10.6233 C.3     1  UNL1        0.0412
@<TRIPOS>BOND
     1    25    24    1
     2    25    26    1
     3    26    27   am
     4    27    28    2
     5    27    30    1
     6    30    31    1
     7    31    32    1
     8    32    33    1
     9    33    34    1
    10    34    35    1
    11    25     1    1
    12     1     2   ar
    13     2     3   ar
    14     3     4   ar
    15     4     7    1
    16     7     8   am
    17     8     9    2
    18     8    10   am
    19    10    11    1
    20    11    12    1
    21    12    15    1
    22    15    16   ar
    23    16    17   ar
    24    17    18   ar
    25    18    19   ar
    26    19    20    1
    27    19    21   ar
    28    12    13    1
    29     4     5   ar
    30     5     6   ar
    31    35    30    1
    32     6     1   ar
    33    13    10    1
    34    21    15   ar
    35    26    29    1
    36     7    14    1
    37    20    22    1
    38    20    23    1
@<TRIPOS>MOLECULE
*****
 35 38 0 0 0
SMALL
GASTEIGER

@<TRIPOS>ATOM
      1 C          60.0690   88.2802    9.3267 C.ar    1  UNL1       -0.0044
      2 C          60.4935   89.7155    9.2294 C.ar    1  UNL1       -0.0014
      3 C          60.2355   90.4903    7.9711 C.ar    1  UNL1        0.0144
      4 C          59.5529   89.8298    6.8102 C.ar    1  UNL1        0.0516
      5 C          59.1284   88.3944    6.9075 C.ar    1  UNL1        0.0144
      6 C          59.3864   87.6196    8.1657 C.ar    1  UNL1       -0.0014
      7 N          59.2949   90.6046    5.5520 N.am    1  UNL1       -0.2681
      8 C          60.4414   91.1983    4.7884 C.2     1  UNL1        0.3077
      9 O          61.8458   91.0173    5.2831 O.2     1  UNL1       -0.2522
     10 N          60.1833   91.9731    3.5302 N.am    1  UNL1       -0.2632
     11 C          61.0424   92.6895    2.5307 C.3     1  UNL1        0.1010
     12 C          59.8185   93.0688    1.7508 C.3     1  UNL1        0.0636
     13 C          58.9594   92.3525    2.7503 C.3     1  UNL1        0.1010
     14 H          58.3731   90.7234    5.2274 H       1  UNL1        0.1564
     15 C          59.5605   93.8436    0.4926 C.ar    1  UNL1        0.0012
     16 C          59.4874   95.3412    0.5356 C.ar    1  UNL1        0.0948
     17 N          59.2294   96.1160   -0.7226 N.ar    1  UNL1       -0.2414
     18 C          59.0444   95.3932   -2.0238 C.ar    1  UNL1        0.1129
     19 C          59.1175   93.8956   -2.0669 C.ar    1  UNL1        0.0607
     20 N          58.9326   93.1728   -3.3682 N.pl3   1  UNL1       -0.3558
     21 C          59.3755   93.1208   -0.8087 C.ar    1  UNL1        0.0130
     22 H          58.7633   93.6813   -4.1940 H       1  UNL1        0.1424
     23 H          58.9806   92.1899   -3.3965 H       1  UNL1        0.1424
     24 C          59.8208   88.0201   11.8997 C.3     1  UNL1        0.0262
     25 C          60.3270   87.5054   10.5849 C.3     1  UNL1        0.0941
     26 N          61.0911   86.2158   10.5282 N.am    1  UNL1       -0.3022
     27 C          62.3289   86.0405   11.3571 C.2     1  UNL1        0.2223
     28 O          62.8026   87.1546   12.2427 O.2     1  UNL1       -0.2751
     29 H          60.7803   85.4846    9.9470 H       1  UNL1        0.1497
     30 C          63.0931   84.7509   11.3004 C.3     1  UNL1        0.0815
     31 C          63.4935   84.0600   12.5702 C.3     1  UNL1        0.0412
     32 C          64.2576   82.7705   12.5134 C.3     1  UNL1        0.1427
     33 O          64.6214   82.1719   11.1870 O.3     1  UNL1       -0.3538
     34 C          64.2210   82.8629    9.9173 C.3     1  UNL1        0.1427
     35 C          63.4568   84.1524    9.9740 C.3     1  UNL1        0.0412
@<TRIPOS>BOND
     1    25    24    1
     2    25    26    1
     3    26    27   am
     4    27    28    2
     5    27    30    1
     6    30    31    1
     7    31    32    1
     8    32    33    1
     9    33    34    1
    10    34    35    1
    11    25     1    1
    12     1     2   ar
    13     2     3   ar
    14     3     4   ar
    15     4     7    1
    16     7     8   am
    17     8     9    2
    18     8    10   am
    19    10    11    1
    20    11    12    1
    21    12    15    1
    22    15    16   ar
    23    16    17   ar
    24    17    18   ar
    25    18    19   ar
    26    19    20    1
    27    19    21   ar
    28    12    13    1
    29     4     5   ar
    30     5     6   ar
    31    35    30    1
    32     6     1   ar
    33    13    10    1
    34    21    15   ar
    35    26    29    1
    36     7    14    1
    37    20    22    1
    38    20    23    1
@<TRIPOS>MOLECULE
*****
 35 38 0 0 0
SMALL
GASTEIGER

@<TRIPOS>ATOM
      1 C          59.8184   94.8700   -0.3717 C.ar    1  UNL1       -0.0044
      2 C          59.7657   93.3744   -0.4729 C.ar    1  UNL1       -0.0014
      3 C          59.9760   92.5320    0.7503 C.ar    1  UNL1        0.0144
      4 C          60.2390   93.1853    2.0747 C.ar    1  UNL1        0.0516
      5 C          60.2917   94.6810    2.1759 C.ar    1  UNL1        0.0144
      6 C          60.0814   95.5234    0.9527 C.ar    1  UNL1       -0.0014
      7 N          60.4494   92.3430    3.2979 N.am    1  UNL1       -0.2681
      8 C          59.2685   91.8037    4.0493 C.2     1  UNL1        0.3077
      9 O          57.8773   92.1069    3.5776 O.2     1  UNL1       -0.2522
     10 N          59.4789   90.9614    5.2725 N.am    1  UNL1       -0.2632
     11 C          58.5775   90.2693    6.2517 C.3     1  UNL1        0.1010
     12 C          59.7763   89.7701    7.0024 C.3     1  UNL1        0.0636
     13 C          60.6777   90.4621    6.0233 C.3     1  UNL1        0.1010
     14 H          61.3625   92.1440    3.6075 H       1  UNL1        0.1564
     15 C          59.9867   88.9278    8.2256 C.ar    1  UNL1        0.0012
     16 C          59.8824   87.4342    8.1347 C.ar    1  UNL1        0.0948
     17 N          60.0927   86.5919    9.3579 N.ar    1  UNL1       -0.2414
     18 C          60.4074   87.2431   10.6720 C.ar    1  UNL1        0.1129
     19 C          60.5117   88.7367   10.7628 C.ar    1  UNL1        0.0607
     20 N          60.8263   89.3880   12.0770 N.pl3   1  UNL1       -0.3558
     21 C          60.3013   89.5790    9.5397 C.ar    1  UNL1        0.0130
     22 H          60.9644   88.8351   12.8798 H       1  UNL1        0.1424
     23 H          60.8948   90.3683   12.1366 H       1  UNL1        0.1424
     24 C          60.5439   96.8454   -1.8953 C.3     1  UNL1        0.0262
     25 C          59.6080   95.7123   -1.5949 C.3     1  UNL1        0.0941
     26 N          58.4617   95.4216   -2.5177 N.am    1  UNL1       -0.3022
     27 C          58.6612   94.5219   -3.7012 C.2     1  UNL1        0.2223
     28 O          60.0069   93.9128   -3.9619 O.2     1  UNL1       -0.2751
     29 H          57.5784   95.8213   -2.3466 H       1  UNL1        0.1497
     30 C          57.5149   94.2311   -4.6240 C.3     1  UNL1        0.0815
     31 C          56.5879   95.3348   -5.0393 C.3     1  UNL1        0.0412
     32 C          55.4416   95.0440   -5.9621 C.3     1  UNL1        0.1427
     33 O          55.2224   93.6496   -6.4695 O.3     1  UNL1       -0.3538
     34 C          56.1493   92.5459   -6.0541 C.3     1  UNL1        0.1427
     35 C          57.2956   92.8367   -5.1314 C.3     1  UNL1        0.0412
@<TRIPOS>BOND
     1    25    24    1
     2    25    26    1
     3    26    27   am
     4    27    28    2
     5    27    30    1
     6    30    31    1
     7    31    32    1
     8    32    33    1
     9    33    34    1
    10    34    35    1
    11    25     1    1
    12     1     2   ar
    13     2     3   ar
    14     3     4   ar
    15     4     7    1
    16     7     8   am
    17     8     9    2
    18     8    10   am
    19    10    11    1
    20    11    12    1
    21    12    15    1
    22    15    16   ar
    23    16    17   ar
    24    17    18   ar
    25    18    19   ar
    26    19    20    1
    27    19    21   ar
    28    12    13    1
    29     4     5   ar
    30     5     6   ar
    31    35    30    1
    32     6     1   ar
    33    13    10    1
    34    21    15   ar
    35    26    29    1
    36     7    14    1
    37    20    22    1
    38    20    23    1
@<TRIPOS>MOLECULE
*****
 35 38 0 0 0
SMALL
GASTEIGER

@<TRIPOS>ATOM
      1 C          65.9979   92.4620   13.9866 C.ar    1  UNL1       -0.0044
      2 C          66.7488   91.4935   14.8515 C.ar    1  UNL1       -0.0014
      3 C          66.3075   90.0622   14.9325 C.ar    1  UNL1        0.0144
      4 C          65.1153   89.5994   14.1487 C.ar    1  UNL1        0.0516
      5 C          64.3643   90.5679   13.2837 C.ar    1  UNL1        0.0144
      6 C          64.8056   91.9992   13.2027 C.ar    1  UNL1       -0.0014
      7 N          64.6740   88.1681   14.2298 N.am    1  UNL1       -0.2681
      8 C          63.8367   87.5781   13.1339 C.2     1  UNL1        0.3077
      9 O          63.4408   88.4196   11.9569 O.2     1  UNL1       -0.2522
     10 N          63.3954   86.1468   13.2150 N.am    1  UNL1       -0.2632
     11 C          62.5799   85.2374   12.3443 C.3     1  UNL1        0.1010
     12 C          62.7713   84.1227   13.3296 C.3     1  UNL1        0.0636
     13 C          63.5868   85.0320   14.2002 C.3     1  UNL1        0.1010
     14 H          64.9338   87.6158   15.0023 H       1  UNL1        0.1564
     15 C          62.3300   82.6913   13.4107 C.ar    1  UNL1        0.0012
     16 C          61.4193   82.2488   14.5173 C.ar    1  UNL1        0.0948
     17 N          60.9780   80.8175   14.5984 N.ar    1  UNL1       -0.2414
     18 C          61.4474   79.8287   13.5728 C.ar    1  UNL1        0.1129
     19 C          62.3581   80.2712   12.4661 C.ar    1  UNL1        0.0607
     20 N          62.8275   79.2824   11.4404 N.pl3   1  UNL1       -0.3558
     21 C          62.7994   81.7025   12.3851 C.ar    1  UNL1        0.0130
     22 H          62.5379   78.3430   11.4936 H       1  UNL1        0.1424
     23 H          63.4253   79.5729   10.7141 H       1  UNL1        0.1424
     24 C          67.2415   94.4951   15.0209 C.3     1  UNL1        0.0262
     25 C          66.4392   93.8933   13.9055 C.3     1  UNL1        0.0941
     26 N          66.0782   94.7229   12.7090 N.am    1  UNL1       -0.3022
     27 C          66.6219   94.3661   11.3573 C.2     1  UNL1        0.2223
     28 O          67.5268   93.1799   11.2021 O.2     1  UNL1       -0.2751
     29 H          65.4843   95.5015   12.8108 H       1  UNL1        0.1497
     30 C          66.2609   95.1957   10.1608 C.3     1  UNL1        0.0815
     31 C          65.0120   96.0264   10.1733 C.3     1  UNL1        0.0412
     32 C          64.6510   96.8559    8.9768 C.3     1  UNL1        0.1427
     33 O          65.5389   96.8546    7.7678 O.3     1  UNL1       -0.3538
     34 C          66.7878   96.0239    7.7553 C.3     1  UNL1        0.1427
     35 C          67.1488   95.1944    8.9518 C.3     1  UNL1        0.0412
@<TRIPOS>BOND
     1    25    24    1
     2    25    26    1
     3    26    27   am
     4    27    28    2
     5    27    30    1
     6    30    31    1
     7    31    32    1
     8    32    33    1
     9    33    34    1
    10    34    35    1
    11    25     1    1
    12     1     2   ar
    13     2     3   ar
    14     3     4   ar
    15     4     7    1
    16     7     8   am
    17     8     9    2
    18     8    10   am
    19    10    11    1
    20    11    12    1
    21    12    15    1
    22    15    16   ar
    23    16    17   ar
    24    17    18   ar
    25    18    19   ar
    26    19    20    1
    27    19    21   ar
    28    12    13    1
    29     4     5   ar
    30     5     6   ar
    31    35    30    1
    32     6     1   ar
    33    13    10    1
    34    21    15   ar
    35    26    29    1
    36     7    14    1
    37    20    22    1
    38    20    23    1
