@<TRIPOS>MOLECULE
*****
 29 31 0 0 0
SMALL
GASTEIGER

@<TRIPOS>ATOM
      1 C          62.2307   86.2700   10.8162 C.ar    1  UNL1        0.0191
      2 C          61.8261   87.1329    9.6578 C.ar    1  UNL1        0.0063
      3 C          61.8992   88.6266    9.7737 C.ar    1  UNL1        0.0581
      4 C          62.3770   89.2575   11.0479 C.ar    1  UNL1        0.2298
      5 N          62.7816   88.3947   12.2063 N.ar    1  UNL1       -0.2098
      6 C          62.7084   86.9009   12.0904 C.ar    1  UNL1        0.1020
      7 C          63.1059   83.9161   11.4816 C.2     1  UNL1       -0.0069
      8 C          62.1575   84.7763   10.7003 C.2     1  UNL1       -0.0014
      9 C          63.0327   82.4224   11.3657 C.3     1  UNL1        0.0939
     10 C          64.0436   81.6839   10.5394 C.3     1  UNL1        0.0262
     11 C          61.0001   80.6026   14.2479 C.3     1  UNL1        0.0946
     12 C          62.0842   81.3578   13.5376 C.2     1  UNL1        0.2232
     13 O          63.3037   81.8034   14.2887 O.2     1  UNL1       -0.2751
     14 N          61.9486   81.6672   12.0760 N.am    1  UNL1       -0.3022
     15 H          61.1482   81.3747   11.5831 H       1  UNL1        0.1497
     16 O          62.4502   90.7512   11.1639 O.3     1  UNL1       -0.4338
     17 C          63.7234   91.4074   11.6095 C.ar    1  UNL1        0.1750
     18 C          64.5461   92.1908   10.6302 C.ar    1  UNL1        0.0415
     19 C          65.8193   92.8470   11.0759 C.ar    1  UNL1        0.0229
     20 C          66.2696   92.7195   12.5010 C.ar    1  UNL1        0.0899
     21 N          67.4703   93.2520   13.2255 N.ar    1  UNL1       -0.2427
     22 C          67.3895   92.7975   14.6528 C.ar    1  UNL1        0.0879
     23 S          66.1390   91.9842   14.8103 S.2     1  UNL1       -0.0684
     24 C          65.4469   91.9360   13.4804 C.ar    1  UNL1        0.0786
     25 C          64.1737   91.2800   13.0346 C.ar    1  UNL1        0.1818
     26 F          63.3509   90.4965   14.0140 F       1  UNL1       -0.2004
     27 C          68.3846   93.1027   15.7329 C.3     1  UNL1        0.0466
     28 C          68.8789   92.0061   16.6289 C.3     1  UNL1        0.0069
     29 C          68.8853   94.5047   15.9170 C.3     1  UNL1        0.0069
@<TRIPOS>BOND
     1    11    12    1
     2    12    13    2
     3    12    14   am
     4    14     9    1
     5     9    10    1
     6     9     7    1
     7     7     8    2
     8     8     1    1
     9     1     2   ar
    10     2     3   ar
    11     3     4   ar
    12     4    16    1
    13    16    17    1
    14    17    18   ar
    15    18    19   ar
    16    19    20   ar
    17    20    21   ar
    18    21    22   ar
    19    22    27    1
    20    27    28    1
    21    27    29    1
    22    22    23   ar
    23    23    24   ar
    24    24    25   ar
    25    25    26    1
    26     4     5   ar
    27     5     6   ar
    28     6     1   ar
    29    25    17   ar
    30    24    20   ar
    31    14    15    1
@<TRIPOS>MOLECULE
*****
 29 31 0 0 0
SMALL
GASTEIGER

@<TRIPOS>ATOM
      1 C          64.8694   91.7882   12.5988 C.ar    1  UNL1        0.0191
      2 C          65.8738   91.6244   13.7009 C.ar    1  UNL1        0.0063
      3 C          65.5020   90.8818   14.9500 C.ar    1  UNL1        0.0581
      4 C          64.1260   90.3031   15.0972 C.ar    1  UNL1        0.2298
      5 N          63.1217   90.4670   13.9951 N.ar    1  UNL1       -0.2098
      6 C          63.4935   91.2096   12.7459 C.ar    1  UNL1        0.1020
      7 C          66.6831   92.8075   11.0428 C.2     1  UNL1       -0.0069
      8 C          65.2412   92.5308   11.3497 C.2     1  UNL1       -0.0014
      9 C          67.0549   93.5501    9.7936 C.3     1  UNL1        0.0939
     10 C          68.3445   93.2403    9.0927 C.3     1  UNL1        0.0262
     11 C          64.8739   96.8550    9.5279 C.3     1  UNL1        0.0946
     12 C          65.7915   95.8027   10.0761 C.2     1  UNL1        0.2232
     13 O          66.3635   95.9506   11.4549 O.2     1  UNL1       -0.2751
     14 N          66.1372   94.6024    9.2454 N.am    1  UNL1       -0.3022
     15 H          65.7618   94.5053    8.3405 H       1  UNL1        0.1497
     16 O          63.7542   89.5605   16.3463 O.3     1  UNL1       -0.4338
     17 C          63.4417   88.0947   16.2825 C.ar    1  UNL1        0.1750
     18 C          62.7342   87.4283   17.4249 C.ar    1  UNL1        0.0415
     19 C          62.4217   85.9625   17.3611 C.ar    1  UNL1        0.0229
     20 C          62.8168   85.1634   16.1548 C.ar    1  UNL1        0.0899
     21 N          62.6435   83.7137   15.8104 N.ar    1  UNL1       -0.2427
     22 C          63.2439   83.4843   14.4551 C.ar    1  UNL1        0.0879
     23 S          63.7883   84.7922   13.9619 S.2     1  UNL1       -0.0684
     24 C          63.5243   85.8299   15.0123 C.ar    1  UNL1        0.0786
     25 C          63.8368   87.2956   15.0762 C.ar    1  UNL1        0.1818
     26 F          64.5443   87.9621   13.9338 F       1  UNL1       -0.2004
     27 C          63.2916   82.1767   13.7218 C.3     1  UNL1        0.0466
     28 C          64.3818   81.9150   12.7253 C.3     1  UNL1        0.0069
     29 C          62.2492   81.1308   13.9850 C.3     1  UNL1        0.0069
@<TRIPOS>BOND
     1    11    12    1
     2    12    13    2
     3    12    14   am
     4    14     9    1
     5     9    10    1
     6     9     7    1
     7     7     8    2
     8     8     1    1
     9     1     2   ar
    10     2     3   ar
    11     3     4   ar
    12     4    16    1
    13    16    17    1
    14    17    18   ar
    15    18    19   ar
    16    19    20   ar
    17    20    21   ar
    18    21    22   ar
    19    22    27    1
    20    27    28    1
    21    27    29    1
    22    22    23   ar
    23    23    24   ar
    24    24    25   ar
    25    25    26    1
    26     4     5   ar
    27     5     6   ar
    28     6     1   ar
    29    25    17   ar
    30    24    20   ar
    31    14    15    1
@<TRIPOS>MOLECULE
*****
 29 31 0 0 0
SMALL
GASTEIGER

@<TRIPOS>ATOM
      1 C          63.5983   86.2658   15.7274 C.ar    1  UNL1        0.0191
      2 C          64.3024   87.0406   14.6531 C.ar    1  UNL1        0.0063
      3 C          64.3102   88.5400   14.6926 C.ar    1  UNL1        0.0581
      4 C          63.6141   89.2647   15.8062 C.ar    1  UNL1        0.2298
      5 N          62.9100   88.4899   16.8804 N.ar    1  UNL1       -0.2098
      6 C          62.9021   86.9904   16.8410 C.ar    1  UNL1        0.1020
      7 C          63.2792   84.0514   14.4065 C.2     1  UNL1       -0.0069
      8 C          63.5904   84.7663   15.6879 C.2     1  UNL1       -0.0014
      9 C          63.2713   82.5520   14.3670 C.3     1  UNL1        0.0939
     10 C          64.5032   81.8063   13.9468 C.3     1  UNL1        0.0262
     11 C          60.2218   80.0181   14.1949 C.3     1  UNL1        0.0946
     12 C          61.4615   80.7718   13.8142 C.2     1  UNL1        0.2232
     13 O          62.1310   80.4993   12.4998 O.2     1  UNL1       -0.2751
     14 N          62.0316   81.7982   14.7478 N.am    1  UNL1       -0.3022
     15 H          61.5922   81.9770   15.6105 H       1  UNL1        0.1497
     16 O          63.6219   90.7642   15.8457 O.3     1  UNL1       -0.4338
     17 C          64.5939   91.5316   14.9992 C.ar    1  UNL1        0.1750
     18 C          65.7433   92.2501   15.6413 C.ar    1  UNL1        0.0415
     19 C          66.7153   93.0175   14.7948 C.ar    1  UNL1        0.0229
     20 C          66.5377   93.0663   13.3062 C.ar    1  UNL1        0.0899
     21 N          67.3291   93.7365   12.2224 N.ar    1  UNL1       -0.2427
     22 C          66.6687   93.4321   10.9105 C.ar    1  UNL1        0.0879
     23 S          65.4692   92.5738   11.1834 S.2     1  UNL1       -0.0684
     24 C          65.3882   92.3477   12.6641 C.ar    1  UNL1        0.0786
     25 C          64.4163   91.5803   13.5106 C.ar    1  UNL1        0.1818
     26 F          63.2669   90.8618   12.8684 F       1  UNL1       -0.2004
     27 C          67.1273   93.9033    9.5623 C.3     1  UNL1        0.0466
     28 C          66.5835   95.1779    8.9883 C.3     1  UNL1        0.0069
     29 C          68.1298   93.0998    8.7880 C.3     1  UNL1        0.0069
@<TRIPOS>BOND
     1    11    12    1
     2    12    13    2
     3    12    14   am
     4    14     9    1
     5     9    10    1
     6     9     7    1
     7     7     8    2
     8     8     1    1
     9     1     2   ar
    10     2     3   ar
    11     3     4   ar
    12     4    16    1
    13    16    17    1
    14    17    18   ar
    15    18    19   ar
    16    19    20   ar
    17    20    21   ar
    18    21    22   ar
    19    22    27    1
    20    27    28    1
    21    27    29    1
    22    22    23   ar
    23    23    24   ar
    24    24    25   ar
    25    25    26    1
    26     4     5   ar
    27     5     6   ar
    28     6     1   ar
    29    25    17   ar
    30    24    20   ar
    31    14    15    1
@<TRIPOS>MOLECULE
*****
 29 31 0 0 0
SMALL
GASTEIGER

@<TRIPOS>ATOM
      1 C          63.8213   85.9367   13.4873 C.ar    1  UNL1        0.0191
      2 C          64.3384   86.3412   14.8361 C.ar    1  UNL1        0.0063
      3 C          64.2916   87.7803   15.2564 C.ar    1  UNL1        0.0581
      4 C          63.7277   88.8150   14.3281 C.ar    1  UNL1        0.2298
      5 N          63.2107   88.4104   12.9794 N.ar    1  UNL1       -0.2098
      6 C          63.2575   86.9712   12.5590 C.ar    1  UNL1        0.1020
      7 C          63.2150   84.0686   11.7866 C.2     1  UNL1       -0.0069
      8 C          63.8680   84.4975   13.0670 C.2     1  UNL1       -0.0014
      9 C          63.2617   82.6295   11.3662 C.3     1  UNL1        0.0939
     10 C          64.2547   82.1812   10.3351 C.3     1  UNL1        0.0262
     11 C          61.7535   79.9184   13.8411 C.3     1  UNL1        0.0946
     12 C          62.6996   80.9092   13.2303 C.2     1  UNL1        0.2232
     13 O          64.0296   81.1707   13.8728 O.2     1  UNL1       -0.2751
     14 N          62.3156   81.6386   11.9770 N.am    1  UNL1       -0.3022
     15 H          61.4427   81.4669   11.5554 H       1  UNL1        0.1497
     16 O          63.6810   90.2541   14.7484 O.3     1  UNL1       -0.4338
     17 C          64.5871   91.2558   14.0960 C.ar    1  UNL1        0.1750
     18 C          65.7136   91.8673   14.8750 C.ar    1  UNL1        0.0415
     19 C          66.6198   92.8690   14.2225 C.ar    1  UNL1        0.0229
     20 C          66.3993   93.2590   12.7910 C.ar    1  UNL1        0.0899
     21 N          67.1239   94.2122   11.8874 N.ar    1  UNL1       -0.2427
     22 C          66.4452   94.1897   10.5500 C.ar    1  UNL1        0.0879
     23 S          65.3011   93.2226   10.6269 S.2     1  UNL1       -0.0684
     24 C          65.2727   92.6475   12.0120 C.ar    1  UNL1        0.0786
     25 C          64.3667   91.6458   12.6644 C.ar    1  UNL1        0.1818
     26 F          63.2401   91.0342   11.8854 F       1  UNL1       -0.2004
     27 C          66.8410   94.9932    9.3468 C.3     1  UNL1        0.0466
     28 C          67.6008   94.3440    8.2282 C.3     1  UNL1        0.0069
     29 C          66.4771   96.4459    9.2621 C.3     1  UNL1        0.0069
@<TRIPOS>BOND
     1    11    12    1
     2    12    13    2
     3    12    14   am
     4    14     9    1
     5     9    10    1
     6     9     7    1
     7     7     8    2
     8     8     1    1
     9     1     2   ar
    10     2     3   ar
    11     3     4   ar
    12     4    16    1
    13    16    17    1
    14    17    18   ar
    15    18    19   ar
    16    19    20   ar
    17    20    21   ar
    18    21    22   ar
    19    22    27    1
    20    27    28    1
    21    27    29    1
    22    22    23   ar
    23    23    24   ar
    24    24    25   ar
    25    25    26    1
    26     4     5   ar
    27     5     6   ar
    28     6     1   ar
    29    25    17   ar
    30    24    20   ar
    31    14    15    1
@<TRIPOS>MOLECULE
*****
 29 31 0 0 0
SMALL
GASTEIGER

@<TRIPOS>ATOM
      1 C          64.8025   91.8058   12.7672 C.ar    1  UNL1        0.0191
      2 C          63.4929   91.0754   12.8091 C.ar    1  UNL1        0.0063
      3 C          63.1194   90.2744   14.0210 C.ar    1  UNL1        0.0581
      4 C          64.0554   90.2036   15.1911 C.ar    1  UNL1        0.2298
      5 N          65.3649   90.9339   15.1491 N.ar    1  UNL1       -0.2098
      6 C          65.7384   91.7350   13.9371 C.ar    1  UNL1        0.1020
      7 C          66.1641   93.7291   11.6734 C.2     1  UNL1       -0.0069
      8 C          65.1760   92.6068   11.5553 C.2     1  UNL1       -0.0014
      9 C          66.5376   94.5302   10.4614 C.3     1  UNL1        0.0939
     10 C          66.2200   95.9951   10.4036 C.3     1  UNL1        0.0262
     11 C          68.9088   92.1029    8.4033 C.3     1  UNL1        0.0946
     12 C          68.2177   92.7667    9.5574 C.2     1  UNL1        0.2232
     13 O          68.5159   92.3309   10.9614 O.2     1  UNL1       -0.2751
     14 N          67.2286   93.8664    9.3074 N.am    1  UNL1       -0.3022
     15 H          67.0329   94.1524    8.3859 H       1  UNL1        0.1497
     16 O          63.6819   89.4025   16.4030 O.3     1  UNL1       -0.4338
     17 C          63.4057   87.9337   16.2752 C.ar    1  UNL1        0.1750
     18 C          62.6464   87.2168   17.3519 C.ar    1  UNL1        0.0415
     19 C          62.3702   85.7480   17.2242 C.ar    1  UNL1        0.0229
     20 C          62.8535   84.9961   16.0196 C.ar    1  UNL1        0.0899
     21 N          62.7325   83.5551   15.6207 N.ar    1  UNL1       -0.2427
     22 C          63.4172   83.3815   14.2974 C.ar    1  UNL1        0.0879
     23 S          63.9612   84.7151   13.8784 S.2     1  UNL1       -0.0684
     24 C          63.6128   85.7130   14.9428 C.ar    1  UNL1        0.0786
     25 C          63.8890   87.1818   15.0706 C.ar    1  UNL1        0.1818
     26 F          64.6483   87.8987   13.9939 F       1  UNL1       -0.2004
     27 C          63.5368   82.0994   13.5281 C.3     1  UNL1        0.0466
     28 C          62.6558   80.9345   13.8702 C.3     1  UNL1        0.0069
     29 C          64.5373   81.9821   12.4168 C.3     1  UNL1        0.0069
@<TRIPOS>BOND
     1    11    12    1
     2    12    13    2
     3    12    14   am
     4    14     9    1
     5     9    10    1
     6     9     7    1
     7     7     8    2
     8     8     1    1
     9     1     2   ar
    10     2     3   ar
    11     3     4   ar
    12     4    16    1
    13    16    17    1
    14    17    18   ar
    15    18    19   ar
    16    19    20   ar
    17    20    21   ar
    18    21    22   ar
    19    22    27    1
    20    27    28    1
    21    27    29    1
    22    22    23   ar
    23    23    24   ar
    24    24    25   ar
    25    25    26    1
    26     4     5   ar
    27     5     6   ar
    28     6     1   ar
    29    25    17   ar
    30    24    20   ar
    31    14    15    1
@<TRIPOS>MOLECULE
*****
 29 31 0 0 0
SMALL
GASTEIGER

@<TRIPOS>ATOM
      1 C          63.6558   91.0558   11.8164 C.ar    1  UNL1        0.0191
      2 C          63.1644   91.2308   10.4100 C.ar    1  UNL1        0.0063
      3 C          62.5251   90.0804    9.6903 C.ar    1  UNL1        0.0581
      4 C          62.3772   88.7550   10.3770 C.ar    1  UNL1        0.2298
      5 N          62.8686   88.5801   11.7834 N.ar    1  UNL1       -0.2098
      6 C          63.5079   89.7306   12.5031 C.ar    1  UNL1        0.1020
      7 C          65.5255   92.8530   11.9724 C.2     1  UNL1       -0.0069
      8 C          64.2951   92.2062   12.5361 C.2     1  UNL1       -0.0014
      9 C          66.1648   94.0034   12.6920 C.3     1  UNL1        0.0939
     10 C          66.4503   95.2808   11.9594 C.3     1  UNL1        0.0262
     11 C          67.9959   92.8497   16.0186 C.3     1  UNL1        0.0946
     12 C          67.6421   92.9767   14.5664 C.2     1  UNL1        0.2232
     13 O          68.4120   92.2042   13.5366 O.2     1  UNL1       -0.2751
     14 N          66.5185   93.8763   14.1442 N.am    1  UNL1       -0.3022
     15 H          66.0132   94.3833   14.8201 H       1  UNL1        0.1497
     16 O          61.7379   87.6046    9.6574 O.3     1  UNL1       -0.4338
     17 C          62.2468   86.2099    9.8718 C.ar    1  UNL1        0.1750
     18 C          63.0068   85.5131    8.7824 C.ar    1  UNL1        0.0415
     19 C          63.5157   84.1184    8.9968 C.ar    1  UNL1        0.0229
     20 C          63.2645   83.4206   10.3006 C.ar    1  UNL1        0.0899
     21 N          63.6409   82.0563   10.7975 N.ar    1  UNL1       -0.2427
     22 C          63.1134   81.9099   12.1941 C.ar    1  UNL1        0.0879
     23 S          62.4111   83.1838   12.5603 S.2     1  UNL1       -0.0684
     24 C          62.5045   84.1174   11.3900 C.ar    1  UNL1        0.0786
     25 C          61.9957   85.5121   11.1756 C.ar    1  UNL1        0.1818
     26 F          61.2356   86.2089   12.2650 F       1  UNL1       -0.2004
     27 C          63.2622   80.7018   13.0707 C.3     1  UNL1        0.0466
     28 C          64.2685   80.7016   14.1830 C.3     1  UNL1        0.0069
     29 C          62.4046   79.4939   12.8349 C.3     1  UNL1        0.0069
@<TRIPOS>BOND
     1    11    12    1
     2    12    13    2
     3    12    14   am
     4    14     9    1
     5     9    10    1
     6     9     7    1
     7     7     8    2
     8     8     1    1
     9     1     2   ar
    10     2     3   ar
    11     3     4   ar
    12     4    16    1
    13    16    17    1
    14    17    18   ar
    15    18    19   ar
    16    19    20   ar
    17    20    21   ar
    18    21    22   ar
    19    22    27    1
    20    27    28    1
    21    27    29    1
    22    22    23   ar
    23    23    24   ar
    24    24    25   ar
    25    25    26    1
    26     4     5   ar
    27     5     6   ar
    28     6     1   ar
    29    25    17   ar
    30    24    20   ar
    31    14    15    1
