@<TRIPOS>MOLECULE
*****
 28 32 0 0 0
SMALL
GASTEIGER

@<TRIPOS>ATOM
      1 C          62.5204   84.8666   11.9930 C.2     1  UNL1        0.3762
      2 N          63.0356   86.1694   12.5290 N.2     1  UNL1       -0.0256
      3 C          62.5327   87.2678   11.6398 C.2     1  UNL1        0.2907
      4 C          62.7202   88.7555   11.6783 C.2     1  UNL1        0.3160
      5 O          63.5462   89.3795   12.7640 O.2     1  UNL1       -0.2638
      6 N          62.0818   89.6193   10.6313 N.am    1  UNL1       -0.1720
      7 C          61.2559   88.9953    9.5457 C.ar    1  UNL1        0.0775
      8 C          60.6175   89.8591    8.4987 C.ar    1  UNL1        0.0167
      9 C          59.7916   89.2351    7.4131 C.ar    1  UNL1        0.0013
     10 C          59.6041   87.7474    7.3745 C.ar    1  UNL1        0.0002
     11 C          60.2425   86.8836    8.4216 C.ar    1  UNL1        0.0051
     12 C          61.0684   87.5076    9.5071 C.ar    1  UNL1        0.0623
     13 C          61.7069   86.6438   10.5542 C.2     1  UNL1        0.2419
     14 N          61.6992   85.1598   10.7725 N.2     1  UNL1       -0.0303
     15 C          63.8417   82.7490   10.3286 C.3     1  UNL1        0.0313
     16 C          63.4414   82.4501   11.7431 C.ar    1  UNL1       -0.0136
     17 C          63.7017   81.0925   12.3253 C.ar    1  UNL1       -0.0040
     18 C          63.3015   80.7937   13.7396 C.ar    1  UNL1        0.0005
     19 C          62.6409   81.8525   14.5718 C.ar    1  UNL1        0.0116
     20 C          62.3805   83.2101   13.9896 C.ar    1  UNL1        0.0648
     21 CL         61.7199   84.2689   14.8218 Cl      1  UNL1       -0.0820
     22 C          62.7808   83.5089   12.5752 C.ar    1  UNL1        0.0950
     23 C          59.1531   90.0989    6.3660 C.ar    1  UNL1        0.0000
     24 C          57.6609   90.1145    6.2144 C.ar    1  UNL1        0.0000
     25 C          57.0224   90.9782    5.1674 C.ar    1  UNL1        0.0000
     26 C          57.8762   91.8264    4.2719 C.ar    1  UNL1        0.0000
     27 C          59.3684   91.8108    4.4235 C.ar    1  UNL1        0.0000
     28 C          60.0069   90.9470    5.4706 C.ar    1  UNL1        0.0000
@<TRIPOS>BOND
     1    15    16    1
     2    16    17   ar
     3    17    18   ar
     4    18    19   ar
     5    19    20   ar
     6    20    21    1
     7    20    22   ar
     8    22     1    1
     9     1     2    1
    10     2     3    2
    11     3     4    1
    12     4     5    2
    13     4     6    1
    14     6     7    2
    15     7     8   ar
    16     8     9   ar
    17     9    23    1
    18    23    24   ar
    19    24    25   ar
    20    25    26   ar
    21    26    27   ar
    22    27    28   ar
    23     9    10   ar
    24    10    11   ar
    25    11    12   ar
    26    12    13    2
    27    13    14    1
    28    22    16   ar
    29    14     1    2
    30    13     3    1
    31    12     7   ar
    32    28    23   ar
@<TRIPOS>MOLECULE
*****
 28 32 0 0 0
SMALL
GASTEIGER

@<TRIPOS>ATOM
      1 C          62.4944   84.8167   11.9619 C.2     1  UNL1        0.3762
      2 N          63.0107   86.1146   12.5085 N.2     1  UNL1       -0.0256
      3 C          62.5140   87.2201   11.6247 C.2     1  UNL1        0.2907
      4 C          62.7050   88.7071   11.6739 C.2     1  UNL1        0.3160
      5 O          63.5283   89.3218   12.7668 O.2     1  UNL1       -0.2638
      6 N          62.0728   89.5794   10.6302 N.am    1  UNL1       -0.1720
      7 C          61.2495   88.9647    9.5372 C.ar    1  UNL1        0.0775
      8 C          60.6173   89.8370    8.4935 C.ar    1  UNL1        0.0167
      9 C          59.7941   89.2223    7.4006 C.ar    1  UNL1        0.0013
     10 C          59.6031   87.7353    7.3515 C.ar    1  UNL1        0.0002
     11 C          60.2353   86.8630    8.3952 C.ar    1  UNL1        0.0051
     12 C          61.0585   87.4777    9.4880 C.ar    1  UNL1        0.0623
     13 C          61.6908   86.6054   10.5318 C.2     1  UNL1        0.2419
     14 N          61.6787   85.1201   10.7402 N.2     1  UNL1       -0.0303
     15 C          61.9720   84.2928   14.8692 C.3     1  UNL1        0.0313
     16 C          62.4879   83.1926   13.9897 C.ar    1  UNL1       -0.0136
     17 C          62.7427   81.8305   14.5640 C.ar    1  UNL1       -0.0040
     18 C          63.2586   80.7304   13.6845 C.ar    1  UNL1        0.0005
     19 C          63.5198   80.9923   12.2309 C.ar    1  UNL1        0.0116
     20 C          63.2651   82.3544   11.6566 C.ar    1  UNL1        0.0648
     21 CL         63.5263   82.6164   10.2030 Cl      1  UNL1       -0.0820
     22 C          62.7492   83.4545   12.5361 C.ar    1  UNL1        0.0950
     23 C          59.1618   90.0946    6.3568 C.ar    1  UNL1        0.0000
     24 C          60.0211   90.9472    5.4710 C.ar    1  UNL1        0.0000
     25 C          59.3889   91.8194    4.4273 C.ar    1  UNL1        0.0000
     26 C          57.8973   91.8391    4.2693 C.ar    1  UNL1        0.0000
     27 C          57.0380   90.9866    5.1552 C.ar    1  UNL1        0.0000
     28 C          57.6703   90.1143    6.1989 C.ar    1  UNL1        0.0000
@<TRIPOS>BOND
     1    15    16    1
     2    16    17   ar
     3    17    18   ar
     4    18    19   ar
     5    19    20   ar
     6    20    21    1
     7    20    22   ar
     8    22     1    1
     9     1     2    1
    10     2     3    2
    11     3     4    1
    12     4     5    2
    13     4     6    1
    14     6     7    2
    15     7     8   ar
    16     8     9   ar
    17     9    23    1
    18    23    24   ar
    19    24    25   ar
    20    25    26   ar
    21    26    27   ar
    22    27    28   ar
    23     9    10   ar
    24    10    11   ar
    25    11    12   ar
    26    12    13    2
    27    13    14    1
    28    22    16   ar
    29    14     1    2
    30    13     3    1
    31    12     7   ar
    32    28    23   ar
@<TRIPOS>MOLECULE
*****
 28 32 0 0 0
SMALL
GASTEIGER

@<TRIPOS>ATOM
      1 C          64.0539   89.7557   13.7915 C.2     1  UNL1        0.3762
      2 N          63.1702   89.9361   12.5929 N.2     1  UNL1       -0.0256
      3 C          62.8420   88.5767   12.0503 C.2     1  UNL1        0.2907
      4 C          62.0111   88.1363   10.8817 C.2     1  UNL1        0.3160
      5 O          61.3303   89.1568   10.0184 O.2     1  UNL1       -0.2638
      6 N          61.8610   86.6755   10.5762 N.am    1  UNL1       -0.1720
      7 C          62.5418   85.6549   11.4395 C.ar    1  UNL1        0.0775
      8 C          62.3918   84.1941   11.1341 C.ar    1  UNL1        0.0167
      9 C          63.0726   83.1736   11.9973 C.ar    1  UNL1        0.0013
     10 C          63.9034   83.6141   13.1659 C.ar    1  UNL1        0.0002
     11 C          64.0535   85.0749   13.4713 C.ar    1  UNL1        0.0051
     12 C          63.3727   86.0953   12.6081 C.ar    1  UNL1        0.0623
     13 C          63.5228   87.5563   12.9135 C.2     1  UNL1        0.2419
     14 N          64.2718   88.2849   13.9896 N.2     1  UNL1       -0.0303
     15 C          66.1073   91.6255   12.6569 C.3     1  UNL1        0.0313
     16 C          65.6470   91.7883   14.0753 C.ar    1  UNL1       -0.0136
     17 C          66.2134   92.8860   14.9263 C.ar    1  UNL1       -0.0040
     18 C          65.7530   93.0488   16.3445 C.ar    1  UNL1        0.0005
     19 C          64.7263   92.1139   16.9118 C.ar    1  UNL1        0.0116
     20 C          64.1599   91.0162   16.0608 C.ar    1  UNL1        0.0648
     21 CL         63.1332   90.0814   16.6281 Cl      1  UNL1       -0.0820
     22 C          64.6203   90.8534   14.6426 C.ar    1  UNL1        0.0950
     23 C          62.9225   81.7127   11.6919 C.ar    1  UNL1        0.0000
     24 C          62.5821   80.7482   12.7891 C.ar    1  UNL1        0.0000
     25 C          62.4321   79.2874   12.4838 C.ar    1  UNL1        0.0000
     26 C          62.6224   78.7909   11.0812 C.ar    1  UNL1        0.0000
     27 C          62.9627   79.7553    9.9839 C.ar    1  UNL1        0.0000
     28 C          63.1128   81.2163   10.2893 C.ar    1  UNL1        0.0000
@<TRIPOS>BOND
     1    15    16    1
     2    16    17   ar
     3    17    18   ar
     4    18    19   ar
     5    19    20   ar
     6    20    21    1
     7    20    22   ar
     8    22     1    1
     9     1     2    1
    10     2     3    2
    11     3     4    1
    12     4     5    2
    13     4     6    1
    14     6     7    2
    15     7     8   ar
    16     8     9   ar
    17     9    23    1
    18    23    24   ar
    19    24    25   ar
    20    25    26   ar
    21    26    27   ar
    22    27    28   ar
    23     9    10   ar
    24    10    11   ar
    25    11    12   ar
    26    12    13    2
    27    13    14    1
    28    22    16   ar
    29    14     1    2
    30    13     3    1
    31    12     7   ar
    32    28    23   ar
@<TRIPOS>MOLECULE
*****
 28 32 0 0 0
SMALL
GASTEIGER

@<TRIPOS>ATOM
      1 C          45.5783   77.0457   19.5377 C.2     1  UNL1        0.3762
      2 N          45.4364   75.9187   20.5173 N.2     1  UNL1       -0.0256
      3 C          45.3385   74.6391   19.7407 C.2     1  UNL1        0.2907
      4 C          45.1857   73.2112   20.1740 C.2     1  UNL1        0.3160
      5 O          45.1042   72.8750   21.6336 O.2     1  UNL1       -0.2638
      6 N          45.1143   72.1196   19.1478 N.am    1  UNL1       -0.1720
      7 C          45.1957   72.4558   17.6882 C.ar    1  UNL1        0.0775
      8 C          45.1244   71.3642   16.6619 C.ar    1  UNL1        0.0167
      9 C          45.2058   71.7004   15.2024 C.ar    1  UNL1        0.0013
     10 C          45.3586   73.1283   14.7691 C.ar    1  UNL1        0.0002
     11 C          45.4300   74.2200   15.7954 C.ar    1  UNL1        0.0051
     12 C          45.3485   73.8837   17.2549 C.ar    1  UNL1        0.0623
     13 C          45.4199   74.9754   18.2812 C.2     1  UNL1        0.2419
     14 N          45.5682   76.4627   18.1557 N.2     1  UNL1       -0.0303
     15 C          47.7825   78.6813   18.3267 C.3     1  UNL1        0.0313
     16 C          46.8098   79.3182   19.2746 C.ar    1  UNL1       -0.0136
     17 C          46.9393   80.7729   19.6168 C.ar    1  UNL1       -0.0040
     18 C          45.9667   81.4097   20.5646 C.ar    1  UNL1        0.0005
     19 C          44.8646   80.5919   21.1702 C.ar    1  UNL1        0.0116
     20 C          44.7351   79.1373   20.8279 C.ar    1  UNL1        0.0648
     21 CL         43.6331   78.3195   21.4334 Cl      1  UNL1       -0.0820
     22 C          45.7078   78.5004   19.8801 C.ar    1  UNL1        0.0950
     23 C          45.1345   70.6088   14.1761 C.ar    1  UNL1        0.0000
     24 C          43.9246   70.4824   13.2985 C.ar    1  UNL1        0.0000
     25 C          43.8532   69.3908   12.2722 C.ar    1  UNL1        0.0000
     26 C          44.9917   68.4255   12.1235 C.ar    1  UNL1        0.0000
     27 C          46.2016   68.5519   13.0011 C.ar    1  UNL1        0.0000
     28 C          46.2729   69.6435   14.0274 C.ar    1  UNL1        0.0000
@<TRIPOS>BOND
     1    15    16    1
     2    16    17   ar
     3    17    18   ar
     4    18    19   ar
     5    19    20   ar
     6    20    21    1
     7    20    22   ar
     8    22     1    1
     9     1     2    1
    10     2     3    2
    11     3     4    1
    12     4     5    2
    13     4     6    1
    14     6     7    2
    15     7     8   ar
    16     8     9   ar
    17     9    23    1
    18    23    24   ar
    19    24    25   ar
    20    25    26   ar
    21    26    27   ar
    22    27    28   ar
    23     9    10   ar
    24    10    11   ar
    25    11    12   ar
    26    12    13    2
    27    13    14    1
    28    22    16   ar
    29    14     1    2
    30    13     3    1
    31    12     7   ar
    32    28    23   ar
@<TRIPOS>MOLECULE
*****
 28 32 0 0 0
SMALL
GASTEIGER

@<TRIPOS>ATOM
      1 C          64.9753   90.4067   13.9534 C.2     1  UNL1        0.3762
      2 N          64.0006   90.5504   12.8223 N.2     1  UNL1       -0.0256
      3 C          63.4381   89.1931   12.5199 C.2     1  UNL1        0.2907
      4 C          62.4359   88.7249   11.5068 C.2     1  UNL1        0.3160
      5 O          61.8089   89.7075   10.5625 O.2     1  UNL1       -0.2638
      6 N          62.0607   87.2743   11.4379 N.am    1  UNL1       -0.1720
      7 C          62.6877   86.2917   12.3822 C.ar    1  UNL1        0.0775
      8 C          62.3125   84.8411   12.3132 C.ar    1  UNL1        0.0167
      9 C          62.9395   83.8586   13.2575 C.ar    1  UNL1        0.0013
     10 C          63.9416   84.3268   14.2706 C.ar    1  UNL1        0.0002
     11 C          64.3168   85.7775   14.3395 C.ar    1  UNL1        0.0051
     12 C          63.6899   86.7599   13.3953 C.ar    1  UNL1        0.0623
     13 C          64.0651   88.2107   13.4642 C.2     1  UNL1        0.2419
     14 N          65.0151   88.9606   14.3501 N.2     1  UNL1       -0.0303
     15 C          64.1860   91.4909   16.6370 C.3     1  UNL1        0.0313
     16 C          65.3759   92.0566   15.9199 C.ar    1  UNL1       -0.0136
     17 C          66.1711   93.1645   16.5447 C.ar    1  UNL1       -0.0040
     18 C          67.3609   93.7302   15.8277 C.ar    1  UNL1        0.0005
     19 C          67.7556   93.1881   14.4859 C.ar    1  UNL1        0.0116
     20 C          66.9604   92.0803   13.8611 C.ar    1  UNL1        0.0648
     21 CL         67.3550   91.5382   12.5193 Cl      1  UNL1       -0.0820
     22 C          65.7706   91.5146   14.5782 C.ar    1  UNL1        0.0950
     23 C          62.5643   82.4079   13.1886 C.ar    1  UNL1        0.0000
     24 C          63.1190   81.5408   12.0975 C.ar    1  UNL1        0.0000
     25 C          62.7438   80.0901   12.0286 C.ar    1  UNL1        0.0000
     26 C          61.8139   79.5065   13.0508 C.ar    1  UNL1        0.0000
     27 C          61.2592   80.3736   14.1419 C.ar    1  UNL1        0.0000
     28 C          61.6344   81.8244   14.2108 C.ar    1  UNL1        0.0000
@<TRIPOS>BOND
     1    15    16    1
     2    16    17   ar
     3    17    18   ar
     4    18    19   ar
     5    19    20   ar
     6    20    21    1
     7    20    22   ar
     8    22     1    1
     9     1     2    1
    10     2     3    2
    11     3     4    1
    12     4     5    2
    13     4     6    1
    14     6     7    2
    15     7     8   ar
    16     8     9   ar
    17     9    23    1
    18    23    24   ar
    19    24    25   ar
    20    25    26   ar
    21    26    27   ar
    22    27    28   ar
    23     9    10   ar
    24    10    11   ar
    25    11    12   ar
    26    12    13    2
    27    13    14    1
    28    22    16   ar
    29    14     1    2
    30    13     3    1
    31    12     7   ar
    32    28    23   ar
@<TRIPOS>MOLECULE
*****
 28 32 0 0 0
SMALL
GASTEIGER

@<TRIPOS>ATOM
      1 C          64.6025   90.2917   13.8448 C.2     1  UNL1        0.3762
      2 N          64.2145   90.0831   15.2787 N.2     1  UNL1       -0.0256
      3 C          63.7817   88.6559   15.4389 C.2     1  UNL1        0.2907
      4 C          63.2935   87.8825   16.6278 C.2     1  UNL1        0.3160
      5 O          63.1730   88.5561   17.9627 O.2     1  UNL1       -0.2638
      6 N          62.9258   86.4357   16.4818 N.am    1  UNL1       -0.1720
      7 C          63.0463   85.7621   15.1470 C.ar    1  UNL1        0.0775
      8 C          62.6786   84.3153   15.0010 C.ar    1  UNL1        0.0167
      9 C          62.7991   83.6418   13.6662 C.ar    1  UNL1        0.0013
     10 C          63.2873   84.4151   12.4773 C.ar    1  UNL1        0.0002
     11 C          63.6551   85.8620   12.6232 C.ar    1  UNL1        0.0051
     12 C          63.5345   86.5355   13.9580 C.ar    1  UNL1        0.0623
     13 C          63.9023   87.9824   14.1040 C.2     1  UNL1        0.2419
     14 N          64.4095   88.9933   13.1188 N.2     1  UNL1       -0.0303
     15 C          63.6927   91.1110   11.1060 C.3     1  UNL1        0.0313
     16 C          64.6418   91.9833   11.8732 C.ar    1  UNL1       -0.0136
     17 C          65.1360   93.2651   11.2710 C.ar    1  UNL1       -0.0040
     18 C          66.0851   94.1372   12.0382 C.ar    1  UNL1        0.0005
     19 C          66.5399   93.7276   13.4076 C.ar    1  UNL1        0.0116
     20 C          66.0458   92.4457   14.0098 C.ar    1  UNL1        0.0648
     21 CL         66.5006   92.0361   15.3792 Cl      1  UNL1       -0.0820
     22 C          65.0967   91.5736   13.2426 C.ar    1  UNL1        0.0950
     23 C          62.4314   82.1948   13.5202 C.ar    1  UNL1        0.0000
     24 C          63.1671   81.3291   12.5408 C.ar    1  UNL1        0.0000
     25 C          62.7995   79.8823   12.3948 C.ar    1  UNL1        0.0000
     26 C          61.6959   79.3010   13.2282 C.ar    1  UNL1        0.0000
     27 C          60.9602   80.1667   14.2076 C.ar    1  UNL1        0.0000
     28 C          61.3279   81.6137   14.3536 C.ar    1  UNL1        0.0000
@<TRIPOS>BOND
     1    15    16    1
     2    16    17   ar
     3    17    18   ar
     4    18    19   ar
     5    19    20   ar
     6    20    21    1
     7    20    22   ar
     8    22     1    1
     9     1     2    1
    10     2     3    2
    11     3     4    1
    12     4     5    2
    13     4     6    1
    14     6     7    2
    15     7     8   ar
    16     8     9   ar
    17     9    23    1
    18    23    24   ar
    19    24    25   ar
    20    25    26   ar
    21    26    27   ar
    22    27    28   ar
    23     9    10   ar
    24    10    11   ar
    25    11    12   ar
    26    12    13    2
    27    13    14    1
    28    22    16   ar
    29    14     1    2
    30    13     3    1
    31    12     7   ar
    32    28    23   ar
