@<TRIPOS>MOLECULE
*****
 29 32 0 0 0
SMALL
GASTEIGER

@<TRIPOS>ATOM
      1 C          61.4156   88.8817    9.8253 C.3     1  UNL1        0.1073
      2 C          60.0470   89.3994   10.1553 C.2     1  UNL1        0.3169
      3 O          59.7168   90.7888   10.6140 O.2     1  UNL1       -0.2501
      4 O          59.0665   88.2837    9.9461 O.3     1  UNL1       -0.4485
      5 C          59.8292   87.0764    9.4867 C.3     1  UNL1        0.2092
      6 C          61.2810   87.4461    9.4121 C.3     1  UNL1        0.0591
      7 C          62.6944   89.6626    9.8960 C.3     1  UNL1        0.0378
      8 C          63.7953   89.3642   13.6972 C.ar    1  UNL1        0.1751
      9 C          63.1960   89.0259   12.3644 C.ar    1  UNL1        0.0360
     10 C          63.2937   90.0009   11.2289 C.ar    1  UNL1       -0.0154
     11 C          63.9908   91.3144   11.4260 C.ar    1  UNL1        0.0360
     12 C          64.5902   91.6528   12.7588 C.ar    1  UNL1        0.1751
     13 C          64.4925   90.6777   13.8945 C.ar    1  UNL1        0.2060
     14 C          64.4615   87.0993   14.7817 C.3     1  UNL1        0.2526
     15 O          63.6975   88.3891   14.8328 O.3     1  UNL1       -0.4683
     16 O          65.2874   92.9662   12.9559 O.3     1  UNL1       -0.4683
     17 C          66.0130   93.6093   11.8115 C.3     1  UNL1        0.2526
     18 O          65.0918   91.0160   15.2272 O.3     1  UNL1       -0.4654
     19 C          64.2369   91.6174   16.3031 C.3     1  UNL1        0.2528
     20 C          62.4015   86.5393    8.9972 C.3     1  UNL1        0.0307
     21 C          62.8102   85.3988    9.8818 C.ar    1  UNL1       -0.0188
     22 C          63.5610   84.2349    9.3061 C.ar    1  UNL1       -0.0009
     23 C          63.9697   83.0945   10.1906 C.ar    1  UNL1        0.0399
     24 C          63.6275   83.1180   11.6509 C.ar    1  UNL1        0.1764
     25 C          62.8767   84.2820   12.2266 C.ar    1  UNL1        0.1761
     26 C          62.4680   85.4224   11.3421 C.ar    1  UNL1        0.0359
     27 O          62.6811   84.0284   13.6920 O.3     1  UNL1       -0.4346
     28 C          63.3111   82.7078   14.0220 C.3     1  UNL1        0.4294
     29 O          63.8961   82.1451   12.7605 O.3     1  UNL1       -0.4346
@<TRIPOS>BOND
     1    14    15    1
     2    15     8    1
     3     8     9   ar
     4     9    10   ar
     5    10     7    1
     6     1     7    1
     7     1     2    1
     8     2     3    2
     9     2     4    1
    10     4     5    1
    11     5     6    1
    12     6    20    1
    13    20    21    1
    14    21    22   ar
    15    22    23   ar
    16    23    24   ar
    17    24    25   ar
    18    25    26   ar
    19    25    27    1
    20    27    28    1
    21    28    29    1
    22    10    11   ar
    23    11    12   ar
    24    12    16    1
    25    16    17    1
    26    12    13   ar
    27    13    18    1
    28    18    19    1
    29    13     8   ar
    30     6     1    1
    31    26    21   ar
    32    29    24    1
@<TRIPOS>MOLECULE
*****
 29 32 0 0 0
SMALL
GASTEIGER

@<TRIPOS>ATOM
      1 C          61.4227   88.8814    9.8693 C.3     1  UNL1        0.1073
      2 C          60.0629   89.4068   10.2226 C.2     1  UNL1        0.3169
      3 O          59.7498   90.7953   10.6960 O.2     1  UNL1       -0.2501
      4 O          59.0710   88.3000   10.0194 O.3     1  UNL1       -0.4485
      5 C          59.8179   87.0905    9.5405 C.3     1  UNL1        0.2092
      6 C          61.2713   87.4498    9.4477 C.3     1  UNL1        0.0591
      7 C          62.7082   89.6521    9.9273 C.3     1  UNL1        0.0378
      8 C          64.5975   91.6835   12.7652 C.ar    1  UNL1        0.1751
      9 C          63.9952   91.3288   11.4381 C.ar    1  UNL1        0.0360
     10 C          63.3106   90.0069   11.2545 C.ar    1  UNL1       -0.0154
     11 C          63.2282   89.0397   12.3980 C.ar    1  UNL1        0.0360
     12 C          63.8306   89.3944   13.7252 C.ar    1  UNL1        0.1751
     13 C          64.5152   90.7164   13.9088 C.ar    1  UNL1        0.2060
     14 C          65.9742   93.6591   11.7896 C.3     1  UNL1        0.2526
     15 O          65.2822   93.0055   12.9488 O.3     1  UNL1       -0.4683
     16 O          63.7482   88.4272   14.8688 O.3     1  UNL1       -0.4683
     17 C          64.3778   87.0709   14.7506 C.3     1  UNL1        0.2526
     18 O          65.1176   91.0711   15.2360 O.3     1  UNL1       -0.4654
     19 C          64.2494   91.6123   16.3330 C.3     1  UNL1        0.2528
     20 C          62.3789   86.5377    9.0102 C.3     1  UNL1        0.0307
     21 C          62.7974   85.3930    9.8847 C.ar    1  UNL1       -0.0188
     22 C          63.5548   84.2389    9.2980 C.ar    1  UNL1       -0.0009
     23 C          63.9734   83.0943   10.1725 C.ar    1  UNL1        0.0399
     24 C          63.6345   83.1039   11.6337 C.ar    1  UNL1        0.1764
     25 C          62.8771   84.2581   12.2204 C.ar    1  UNL1        0.1761
     26 C          62.4586   85.4027   11.3460 C.ar    1  UNL1        0.0359
     27 O          62.6868   83.9915   13.6842 O.3     1  UNL1       -0.4346
     28 C          63.3266   82.6726   14.0022 C.3     1  UNL1        0.4294
     29 O          63.9124   82.1240   12.7349 O.3     1  UNL1       -0.4346
@<TRIPOS>BOND
     1    14    15    1
     2    15     8    1
     3     8     9   ar
     4     9    10   ar
     5    10     7    1
     6     1     7    1
     7     1     2    1
     8     2     3    2
     9     2     4    1
    10     4     5    1
    11     5     6    1
    12     6    20    1
    13    20    21    1
    14    21    22   ar
    15    22    23   ar
    16    23    24   ar
    17    24    25   ar
    18    25    26   ar
    19    25    27    1
    20    27    28    1
    21    28    29    1
    22    10    11   ar
    23    11    12   ar
    24    12    16    1
    25    16    17    1
    26    12    13   ar
    27    13    18    1
    28    18    19    1
    29    13     8   ar
    30     6     1    1
    31    26    21   ar
    32    29    24    1
@<TRIPOS>MOLECULE
*****
 29 32 0 0 0
SMALL
GASTEIGER

@<TRIPOS>ATOM
      1 C          61.2633   86.4427    8.8166 C.3     1  UNL1        0.1073
      2 C          60.7996   85.8242    7.5311 C.2     1  UNL1        0.3169
      3 O          61.5949   84.8954    6.6624 O.2     1  UNL1       -0.2501
      4 O          59.4010   86.2976    7.2669 O.3     1  UNL1       -0.4485
      5 C          59.0003   87.2088    8.3891 C.3     1  UNL1        0.2092
      6 C          60.1512   87.2984    9.3469 C.3     1  UNL1        0.0591
      7 C          62.6036   86.2410    9.4591 C.3     1  UNL1        0.0378
      8 C          63.4679   82.7545   11.1464 C.ar    1  UNL1        0.1751
      9 C          63.2879   83.8195   10.1056 C.ar    1  UNL1        0.0360
     10 C          62.7837   85.1760   10.4999 C.ar    1  UNL1       -0.0154
     11 C          62.4594   85.4676   11.9351 C.ar    1  UNL1        0.0360
     12 C          62.6394   84.4025   12.9761 C.ar    1  UNL1        0.1751
     13 C          63.1437   83.0460   12.5817 C.ar    1  UNL1        0.2060
     14 C          63.0094   80.3460   10.2870 C.3     1  UNL1        0.2526
     15 O          63.9722   81.3979   10.7521 O.3     1  UNL1       -0.4683
     16 O          62.3152   84.6941   14.4113 O.3     1  UNL1       -0.4683
     17 C          63.4201   84.9520   15.3923 C.3     1  UNL1        0.2526
     18 O          63.3237   81.9810   13.6226 O.3     1  UNL1       -0.4654
     19 C          62.1797   81.0778   13.9771 C.3     1  UNL1        0.2528
     20 C          60.1843   88.1026   10.6127 C.3     1  UNL1        0.0307
     21 C          61.2945   89.0832   10.8494 C.ar    1  UNL1       -0.0188
     22 C          61.6989   90.0350    9.7629 C.ar    1  UNL1       -0.0009
     23 C          62.8090   91.0156    9.9997 C.ar    1  UNL1        0.0399
     24 C          63.5147   91.0444   11.3230 C.ar    1  UNL1        0.1764
     25 C          63.1103   90.0926   12.4095 C.ar    1  UNL1        0.1761
     26 C          62.0002   89.1120   12.1728 C.ar    1  UNL1        0.0359
     27 O          63.9824   90.3527   13.6019 O.3     1  UNL1       -0.4346
     28 C          64.9258   91.4653   13.2523 C.3     1  UNL1        0.4294
     29 O          64.6368   91.8928   11.8438 O.3     1  UNL1       -0.4346
@<TRIPOS>BOND
     1    14    15    1
     2    15     8    1
     3     8     9   ar
     4     9    10   ar
     5    10     7    1
     6     1     7    1
     7     1     2    1
     8     2     3    2
     9     2     4    1
    10     4     5    1
    11     5     6    1
    12     6    20    1
    13    20    21    1
    14    21    22   ar
    15    22    23   ar
    16    23    24   ar
    17    24    25   ar
    18    25    26   ar
    19    25    27    1
    20    27    28    1
    21    28    29    1
    22    10    11   ar
    23    11    12   ar
    24    12    16    1
    25    16    17    1
    26    12    13   ar
    27    13    18    1
    28    18    19    1
    29    13     8   ar
    30     6     1    1
    31    26    21   ar
    32    29    24    1
@<TRIPOS>MOLECULE
*****
 29 32 0 0 0
SMALL
GASTEIGER

@<TRIPOS>ATOM
      1 C          61.2234   86.5153    8.8355 C.3     1  UNL1        0.1073
      2 C          60.7783   85.8624    7.5605 C.2     1  UNL1        0.3169
      3 O          61.5903   84.9200    6.7223 O.2     1  UNL1       -0.2501
      4 O          59.3786   86.3173    7.2708 O.3     1  UNL1       -0.4485
      5 C          58.9587   87.2515    8.3668 C.3     1  UNL1        0.2092
      6 C          60.0988   87.3738    9.3338 C.3     1  UNL1        0.0591
      7 C          62.5587   86.3405    9.4962 C.3     1  UNL1        0.0378
      8 C          62.6295   84.4179   12.9673 C.ar    1  UNL1        0.1751
      9 C          62.4314   85.5050   11.9530 C.ar    1  UNL1        0.0360
     10 C          62.7568   85.2534   10.5106 C.ar    1  UNL1       -0.0154
     11 C          63.2805   83.9146   10.0824 C.ar    1  UNL1        0.0360
     12 C          63.4787   82.8273   11.0967 C.ar    1  UNL1        0.1751
     13 C          63.1532   83.0790   12.5392 C.ar    1  UNL1        0.2060
     14 C          63.4080   84.9027   15.3981 C.3     1  UNL1        0.2526
     15 O          62.3040   84.6696   14.4098 O.3     1  UNL1       -0.4683
     16 O          64.0023   81.4885   10.6686 O.3     1  UNL1       -0.4683
     17 C          63.0468   80.3870   10.3170 C.3     1  UNL1        0.2526
     18 O          63.3513   81.9919   13.5535 O.3     1  UNL1       -0.4654
     19 C          62.1881   81.1503   13.9879 C.3     1  UNL1        0.2528
     20 C          60.1121   88.2081   10.5803 C.3     1  UNL1        0.0307
     21 C          61.2477   89.1537   10.8379 C.ar    1  UNL1       -0.0188
     22 C          61.7194   90.0730    9.7506 C.ar    1  UNL1       -0.0009
     23 C          62.8550   91.0186   10.0082 C.ar    1  UNL1        0.0399
     24 C          63.5189   91.0448   11.3530 C.ar    1  UNL1        0.1764
     25 C          63.0471   90.1254   12.4403 C.ar    1  UNL1        0.1761
     26 C          61.9116   89.1798   12.1828 C.ar    1  UNL1        0.0359
     27 O          63.8894   90.3748   13.6562 O.3     1  UNL1       -0.4346
     28 C          64.8817   91.4484   13.3204 C.3     1  UNL1        0.4294
     29 O          64.6527   91.8624   11.8969 O.3     1  UNL1       -0.4346
@<TRIPOS>BOND
     1    14    15    1
     2    15     8    1
     3     8     9   ar
     4     9    10   ar
     5    10     7    1
     6     1     7    1
     7     1     2    1
     8     2     3    2
     9     2     4    1
    10     4     5    1
    11     5     6    1
    12     6    20    1
    13    20    21    1
    14    21    22   ar
    15    22    23   ar
    16    23    24   ar
    17    24    25   ar
    18    25    26   ar
    19    25    27    1
    20    27    28    1
    21    28    29    1
    22    10    11   ar
    23    11    12   ar
    24    12    16    1
    25    16    17    1
    26    12    13   ar
    27    13    18    1
    28    18    19    1
    29    13     8   ar
    30     6     1    1
    31    26    21   ar
    32    29    24    1
@<TRIPOS>MOLECULE
*****
 29 32 0 0 0
SMALL
GASTEIGER

@<TRIPOS>ATOM
      1 C          64.4605   90.2293   14.7522 C.3     1  UNL1        0.1073
      2 C          63.3884   90.4056   15.7864 C.2     1  UNL1        0.3169
      3 O          62.2141   89.4978   16.0026 O.2     1  UNL1       -0.2501
      4 O          63.6967   91.6492   16.5665 O.3     1  UNL1       -0.4485
      5 C          64.9595   92.2415   16.0143 C.3     1  UNL1        0.2092
      6 C          65.4314   91.3640   14.8931 C.3     1  UNL1        0.0591
      7 C          64.5465   89.1142   13.7526 C.3     1  UNL1        0.0378
      8 C          62.0444   87.2372   11.3101 C.ar    1  UNL1        0.1751
      9 C          63.1834   87.4882   12.2533 C.ar    1  UNL1        0.0360
     10 C          63.4075   88.8631   12.8094 C.ar    1  UNL1       -0.0154
     11 C          62.4927   89.9870   12.4223 C.ar    1  UNL1        0.0360
     12 C          61.3536   89.7360   11.4791 C.ar    1  UNL1        0.1751
     13 C          61.1295   88.3610   10.9230 C.ar    1  UNL1        0.2060
     14 C          62.5934   85.4036    9.5532 C.3     1  UNL1        0.2526
     15 O          61.8202   85.8622   10.7540 O.3     1  UNL1       -0.4683
     16 O          60.4388   90.8599   11.0920 O.3     1  UNL1       -0.4683
     17 C          59.0145   90.8636   11.5625 C.3     1  UNL1        0.2526
     18 O          59.9905   88.1100    9.9798 O.3     1  UNL1       -0.4654
     19 C          60.1218   88.4758    8.5310 C.3     1  UNL1        0.2528
     20 C          66.6589   91.5827   14.0591 C.3     1  UNL1        0.0307
     21 C          66.6229   92.5459   12.9097 C.ar    1  UNL1       -0.0188
     22 C          66.9130   92.0651   11.5189 C.ar    1  UNL1       -0.0009
     23 C          66.8770   93.0283   10.3696 C.ar    1  UNL1        0.0399
     24 C          66.5510   94.4724   10.6112 C.ar    1  UNL1        0.1764
     25 C          66.2609   94.9533   12.0021 C.ar    1  UNL1        0.1761
     26 C          66.2969   93.9901   13.1514 C.ar    1  UNL1        0.0359
     27 O          65.9725   96.4237   11.9336 O.3     1  UNL1       -0.4346
     28 C          66.0843   96.8516   10.5003 C.3     1  UNL1        0.4294
     29 O          66.4418   95.6456    9.6830 O.3     1  UNL1       -0.4346
@<TRIPOS>BOND
     1    14    15    1
     2    15     8    1
     3     8     9   ar
     4     9    10   ar
     5    10     7    1
     6     1     7    1
     7     1     2    1
     8     2     3    2
     9     2     4    1
    10     4     5    1
    11     5     6    1
    12     6    20    1
    13    20    21    1
    14    21    22   ar
    15    22    23   ar
    16    23    24   ar
    17    24    25   ar
    18    25    26   ar
    19    25    27    1
    20    27    28    1
    21    28    29    1
    22    10    11   ar
    23    11    12   ar
    24    12    16    1
    25    16    17    1
    26    12    13   ar
    27    13    18    1
    28    18    19    1
    29    13     8   ar
    30     6     1    1
    31    26    21   ar
    32    29    24    1
@<TRIPOS>MOLECULE
*****
 29 32 0 0 0
SMALL
GASTEIGER

@<TRIPOS>ATOM
      1 C          64.2302   89.4222   15.1859 C.3     1  UNL1        0.1073
      2 C          63.1283   89.5468   16.1960 C.2     1  UNL1        0.3169
      3 O          62.2015   88.4500   16.6296 O.2     1  UNL1       -0.2501
      4 O          63.1160   90.9608   16.6965 O.3     1  UNL1       -0.4485
      5 C          64.2103   91.7101   15.9956 C.3     1  UNL1        0.2092
      6 C          64.8989   90.7592   15.0620 C.3     1  UNL1        0.0591
      7 C          64.5987   88.1788   14.4320 C.3     1  UNL1        0.0378
      8 C          62.2479   88.2155   11.2348 C.ar    1  UNL1        0.1751
      9 C          63.1133   88.6925   12.3632 C.ar    1  UNL1        0.0360
     10 C          63.7333   87.7019   13.3035 C.ar    1  UNL1       -0.0154
     11 C          63.4878   86.2341   13.1153 C.ar    1  UNL1        0.0360
     12 C          62.6223   85.7570   11.9868 C.ar    1  UNL1        0.1751
     13 C          62.0024   86.7477   11.0465 C.ar    1  UNL1        0.2060
     14 C          62.2483   90.5601   10.1156 C.3     1  UNL1        0.2526
     15 O          61.6279   89.2062   10.2945 O.3     1  UNL1       -0.4683
     16 O          62.3768   84.2893   11.7987 O.3     1  UNL1       -0.4683
     17 C          63.5036   83.3131   11.9645 C.3     1  UNL1        0.2526
     18 O          61.1369   86.2707    9.9181 O.3     1  UNL1       -0.4654
     19 C          61.7198   86.0990    8.5467 C.3     1  UNL1        0.2528
     20 C          66.0535   91.0875   14.1625 C.3     1  UNL1        0.0307
     21 C          65.9018   92.1350   13.0995 C.ar    1  UNL1       -0.0188
     22 C          65.3628   91.7620   11.7504 C.ar    1  UNL1       -0.0009
     23 C          65.2112   92.8094   10.6875 C.ar    1  UNL1        0.0399
     24 C          65.5986   94.2300   10.9737 C.ar    1  UNL1        0.1764
     25 C          66.1376   94.6031   12.3229 C.ar    1  UNL1        0.1761
     26 C          66.2892   93.5556   13.3858 C.ar    1  UNL1        0.0359
     27 O          66.4336   96.0736   12.3134 O.3     1  UNL1       -0.4346
     28 C          66.0775   96.6092   10.9583 C.3     1  UNL1        0.4294
     29 O          65.5615   95.4699   10.1304 O.3     1  UNL1       -0.4346
@<TRIPOS>BOND
     1    14    15    1
     2    15     8    1
     3     8     9   ar
     4     9    10   ar
     5    10     7    1
     6     1     7    1
     7     1     2    1
     8     2     3    2
     9     2     4    1
    10     4     5    1
    11     5     6    1
    12     6    20    1
    13    20    21    1
    14    21    22   ar
    15    22    23   ar
    16    23    24   ar
    17    24    25   ar
    18    25    26   ar
    19    25    27    1
    20    27    28    1
    21    28    29    1
    22    10    11   ar
    23    11    12   ar
    24    12    16    1
    25    16    17    1
    26    12    13   ar
    27    13    18    1
    28    18    19    1
    29    13     8   ar
    30     6     1    1
    31    26    21   ar
    32    29    24    1
@<TRIPOS>MOLECULE
*****
 29 32 0 0 0
SMALL
GASTEIGER

@<TRIPOS>ATOM
      1 C          61.3507   89.4792   10.6915 C.3     1  UNL1        0.1073
      2 C          60.0448   90.0426   11.1682 C.2     1  UNL1        0.3169
      3 O          59.6762   91.4959   11.2151 O.2     1  UNL1       -0.2501
      4 O          59.1722   88.8977   11.5899 O.3     1  UNL1       -0.4485
      5 C          59.9389   87.6266   11.3738 C.3     1  UNL1        0.2092
      6 C          61.2852   87.9860   10.8186 C.3     1  UNL1        0.0591
      7 C          62.5172   90.2700   10.1779 C.3     1  UNL1        0.0378
      8 C          64.5111   91.0315   13.5237 C.ar    1  UNL1        0.1751
      9 C          63.5444   90.4093   12.5602 C.ar    1  UNL1        0.0360
     10 C          63.4839   90.8922   11.1415 C.ar    1  UNL1       -0.0154
     11 C          64.3900   91.9974   10.6861 C.ar    1  UNL1        0.0360
     12 C          65.3568   92.6197   11.6496 C.ar    1  UNL1        0.1751
     13 C          65.4173   92.1367   13.0685 C.ar    1  UNL1        0.2060
     14 C          63.4645   89.6999   15.4938 C.3     1  UNL1        0.2526
     15 O          64.5716   90.5485   14.9426 O.3     1  UNL1       -0.4683
     16 O          66.2629   93.7249   11.1942 O.3     1  UNL1       -0.4683
     17 C          66.8561   93.6890    9.8170 C.3     1  UNL1        0.2526
     18 O          66.3840   92.7590   14.0319 O.3     1  UNL1       -0.4654
     19 C          67.7054   92.1010   14.2987 C.3     1  UNL1        0.2528
     20 C          62.3747   87.0215   10.4543 C.3     1  UNL1        0.0307
     21 C          62.7043   85.8810   11.3713 C.ar    1  UNL1       -0.0188
     22 C          63.2216   86.1544   12.7523 C.ar    1  UNL1       -0.0009
     23 C          63.5512   85.0140   13.6692 C.ar    1  UNL1        0.0399
     24 C          63.3633   83.6000   13.2050 C.ar    1  UNL1        0.1764
     25 C          62.8459   83.3266   11.8239 C.ar    1  UNL1        0.1761
     26 C          62.5164   84.4670   10.9069 C.ar    1  UNL1        0.0359
     27 O          62.7638   81.8395   11.6456 O.3     1  UNL1       -0.4346
     28 C          63.2305   81.1939   12.9166 C.3     1  UNL1        0.4294
     29 O          63.6010   82.2819   13.8803 O.3     1  UNL1       -0.4346
@<TRIPOS>BOND
     1    14    15    1
     2    15     8    1
     3     8     9   ar
     4     9    10   ar
     5    10     7    1
     6     1     7    1
     7     1     2    1
     8     2     3    2
     9     2     4    1
    10     4     5    1
    11     5     6    1
    12     6    20    1
    13    20    21    1
    14    21    22   ar
    15    22    23   ar
    16    23    24   ar
    17    24    25   ar
    18    25    26   ar
    19    25    27    1
    20    27    28    1
    21    28    29    1
    22    10    11   ar
    23    11    12   ar
    24    12    16    1
    25    16    17    1
    26    12    13   ar
    27    13    18    1
    28    18    19    1
    29    13     8   ar
    30     6     1    1
    31    26    21   ar
    32    29    24    1
@<TRIPOS>MOLECULE
*****
 29 32 0 0 0
SMALL
GASTEIGER

@<TRIPOS>ATOM
      1 C          61.3630   89.6108   10.7925 C.3     1  UNL1        0.1073
      2 C          60.0226   90.1399   11.2086 C.2     1  UNL1        0.3169
      3 O          59.6272   91.5853   11.2755 O.2     1  UNL1       -0.2501
      4 O          59.1467   88.9698   11.5461 O.3     1  UNL1       -0.4485
      5 C          59.9460   87.7175   11.3385 C.3     1  UNL1        0.2092
      6 C          61.3157   88.1137   10.8728 C.3     1  UNL1        0.0591
      7 C          62.5436   90.4342   10.3702 C.3     1  UNL1        0.0378
      8 C          65.5279   92.4546   12.0320 C.ar    1  UNL1        0.1751
      9 C          64.5763   91.9242   11.0010 C.ar    1  UNL1        0.0360
     10 C          63.4953   90.9646   11.4012 C.ar    1  UNL1       -0.0154
     11 C          63.3658   90.5352   12.8326 C.ar    1  UNL1        0.0360
     12 C          64.3175   91.0655   13.8638 C.ar    1  UNL1        0.1751
     13 C          65.3986   92.0252   13.4635 C.ar    1  UNL1        0.2060
     14 C          66.2589   94.8224   11.2516 C.3     1  UNL1        0.2526
     15 O          66.6090   93.4143   11.6317 O.3     1  UNL1       -0.4683
     16 O          64.1880   90.6362   15.2952 O.3     1  UNL1       -0.4683
     17 C          63.5142   89.3388   15.6309 C.3     1  UNL1        0.2526
     18 O          66.3502   92.5556   14.4945 O.3     1  UNL1       -0.4654
     19 C          67.6567   91.8599   14.7376 C.3     1  UNL1        0.2528
     20 C          62.4406   87.1772   10.5449 C.3     1  UNL1        0.0307
     21 C          62.7449   86.0232   11.4538 C.ar    1  UNL1       -0.0188
     22 C          63.3070   86.2739   12.8216 C.ar    1  UNL1       -0.0009
     23 C          63.6113   85.1200   13.7305 C.ar    1  UNL1        0.0399
     24 C          63.3535   83.7155   13.2713 C.ar    1  UNL1        0.1764
     25 C          62.7914   83.4648   11.9034 C.ar    1  UNL1        0.1761
     26 C          62.4871   84.6186   10.9946 C.ar    1  UNL1        0.0359
     27 O          62.6432   81.9825   11.7276 O.3     1  UNL1       -0.4346
     28 C          63.1138   81.3171   12.9869 C.3     1  UNL1        0.4294
     29 O          63.5528   82.3881   13.9410 O.3     1  UNL1       -0.4346
@<TRIPOS>BOND
     1    14    15    1
     2    15     8    1
     3     8     9   ar
     4     9    10   ar
     5    10     7    1
     6     1     7    1
     7     1     2    1
     8     2     3    2
     9     2     4    1
    10     4     5    1
    11     5     6    1
    12     6    20    1
    13    20    21    1
    14    21    22   ar
    15    22    23   ar
    16    23    24   ar
    17    24    25   ar
    18    25    26   ar
    19    25    27    1
    20    27    28    1
    21    28    29    1
    22    10    11   ar
    23    11    12   ar
    24    12    16    1
    25    16    17    1
    26    12    13   ar
    27    13    18    1
    28    18    19    1
    29    13     8   ar
    30     6     1    1
    31    26    21   ar
    32    29    24    1
@<TRIPOS>MOLECULE
*****
 29 32 0 0 0
SMALL
GASTEIGER

@<TRIPOS>ATOM
      1 C          63.9234   87.4332   15.6229 C.3     1  UNL1        0.1073
      2 C          63.1054   87.4130   16.8800 C.2     1  UNL1        0.3169
      3 O          63.0075   86.2731   17.8501 O.2     1  UNL1       -0.2501
      4 O          62.4024   88.7330   16.9970 O.3     1  UNL1       -0.4485
      5 C          62.7860   89.5689   15.8119 C.3     1  UNL1        0.2092
      6 C          63.7260   88.7656   14.9628 C.3     1  UNL1        0.0591
      7 C          64.7871   86.3170   15.1150 C.3     1  UNL1        0.0378
      8 C          63.6866   82.7489   13.7704 C.ar    1  UNL1        0.1751
      9 C          64.2757   83.8128   14.6486 C.ar    1  UNL1        0.0360
     10 C          64.1981   85.2530   14.2369 C.ar    1  UNL1       -0.0154
     11 C          63.5314   85.6294   12.9470 C.ar    1  UNL1        0.0360
     12 C          62.9423   84.5655   12.0688 C.ar    1  UNL1        0.1751
     13 C          63.0199   83.1252   12.4805 C.ar    1  UNL1        0.2060
     14 C          62.5636   80.4213   14.0370 C.3     1  UNL1        0.2526
     15 O          63.7643   81.3086   14.1822 O.3     1  UNL1       -0.4683
     16 O          62.2756   84.9419   10.7789 O.3     1  UNL1       -0.4683
     17 C          61.3065   86.0862   10.7416 C.3     1  UNL1        0.2526
     18 O          62.4309   82.0613   11.6024 O.3     1  UNL1       -0.4654
     19 C          63.2456   81.4713   10.4896 C.3     1  UNL1        0.2528
     20 C          64.3577   89.2156   13.6789 C.3     1  UNL1        0.0307
     21 C          64.9679   90.5826   13.5820 C.ar    1  UNL1       -0.0188
     22 C          65.7390   91.1435   14.7398 C.ar    1  UNL1       -0.0009
     23 C          66.3491   92.5103   14.6430 C.ar    1  UNL1        0.0399
     24 C          66.1882   93.3163   13.3882 C.ar    1  UNL1        0.1764
     25 C          65.4171   92.7554   12.2302 C.ar    1  UNL1        0.1761
     26 C          64.8069   91.3885   12.3271 C.ar    1  UNL1        0.0359
     27 O          65.4255   93.7751   11.1302 O.3     1  UNL1       -0.4346
     28 C          66.2018   94.9662   11.6083 C.3     1  UNL1        0.4294
     29 O          66.6732   94.6827   13.0038 O.3     1  UNL1       -0.4346
@<TRIPOS>BOND
     1    14    15    1
     2    15     8    1
     3     8     9   ar
     4     9    10   ar
     5    10     7    1
     6     1     7    1
     7     1     2    1
     8     2     3    2
     9     2     4    1
    10     4     5    1
    11     5     6    1
    12     6    20    1
    13    20    21    1
    14    21    22   ar
    15    22    23   ar
    16    23    24   ar
    17    24    25   ar
    18    25    26   ar
    19    25    27    1
    20    27    28    1
    21    28    29    1
    22    10    11   ar
    23    11    12   ar
    24    12    16    1
    25    16    17    1
    26    12    13   ar
    27    13    18    1
    28    18    19    1
    29    13     8   ar
    30     6     1    1
    31    26    21   ar
    32    29    24    1
