@<TRIPOS>MOLECULE
*****
 24 27 0 0 0
SMALL
GASTEIGER

@<TRIPOS>ATOM
      1 N          60.9545   88.1519    9.6585 N.3     1  UNL1       -0.1569
      2 C          60.9679   89.6464    9.5312 C.3     1  UNL1        0.0957
      3 C          61.8222   90.4697   10.4489 C.3     1  UNL1        0.0238
      4 C          62.6633   89.7984   11.4940 C.3     1  UNL1        0.0548
      5 C          62.6499   88.3040   11.6213 C.3     1  UNL1        0.1303
      6 O          63.4909   87.6326   12.6664 O.3     1  UNL1       -0.3829
      7 C          61.7955   87.4807   10.7036 C.3     1  UNL1        0.1246
      8 H          63.3667   86.6721   12.6134 H       1  UNL1        0.2104
      9 C          63.5177   90.6217   12.4117 C.3     1  UNL1        0.1118
     10 C          64.5174   91.6583   11.9921 C.ar    1  UNL1       -0.0002
     11 C          64.9414   92.1552   10.6418 C.ar    1  UNL1       -0.0024
     12 C          65.9879   93.2240   10.5307 C.ar    1  UNL1       -0.0003
     13 C          66.6104   93.7960   11.7697 C.ar    1  UNL1        0.0000
     14 C          66.1864   93.2991   13.1200 C.ar    1  UNL1        0.0012
     15 C          65.1399   92.2302   13.2312 C.ar    1  UNL1        0.0152
     16 C          64.5249   91.5472   14.4166 C.ar    1  UNL1        0.0804
     17 C          64.5295   91.4785   15.9151 C.ar    1  UNL1        0.1177
     18 N          63.5297   90.4420   16.3346 N.ar    1  UNL1       -0.2223
     19 C          62.9072   89.8700   15.0956 C.ar    1  UNL1        0.1788
     20 N          63.5222   90.5531   13.9102 N.ar    1  UNL1       -0.3069
     21 C          59.2458   86.5052    7.8232 C.3     1  UNL1        0.1960
     22 S          60.1001   87.3285    8.7408 S.O2    1  UNL1        0.0457
     23 O          59.5368   88.5824    8.1404 O.2     1  UNL1       -0.1572
     24 O          60.6635   86.0747    9.3413 O.2     1  UNL1       -0.1572
@<TRIPOS>BOND
     1    21    22    1
     2    22    23    2
     3    22    24    2
     4    22     1    1
     5     1     2    1
     6     2     3    1
     7     4     3    1
     8     4     9    1
     9     9    10    1
    10    10    11   ar
    11    11    12   ar
    12    12    13   ar
    13    13    14   ar
    14    14    15   ar
    15    15    16    1
    16    16    17   ar
    17    17    18   ar
    18    18    19   ar
    19    19    20   ar
    20     4     5    1
    21     5     6    1
    22     5     7    1
    23     7     1    1
    24     9    20    1
    25    15    10   ar
    26    20    16   ar
    27     6     8    1
@<TRIPOS>MOLECULE
*****
 24 27 0 0 0
SMALL
GASTEIGER

@<TRIPOS>ATOM
      1 N          63.0712   83.0467   12.6533 N.3     1  UNL1       -0.1569
      2 C          62.4731   84.1182   13.5160 C.3     1  UNL1        0.0957
      3 C          62.1114   85.4463   12.9197 C.3     1  UNL1        0.0238
      4 C          62.3478   85.7028   11.4608 C.3     1  UNL1        0.0548
      5 C          62.9459   84.6313   10.5982 C.3     1  UNL1        0.1303
      6 O          63.1823   84.8877    9.1393 O.3     1  UNL1       -0.3829
      7 C          63.3075   83.3032   11.1945 C.3     1  UNL1        0.1246
      8 H          63.5711   84.0983    8.7311 H       1  UNL1        0.2104
      9 C          61.9862   87.0309   10.8646 C.3     1  UNL1        0.1118
     10 C          61.0546   87.2548    9.7104 C.ar    1  UNL1       -0.0002
     11 C          60.2605   86.3057    8.8628 C.ar    1  UNL1       -0.0024
     12 C          59.3970   86.8323    7.7550 C.ar    1  UNL1       -0.0003
     13 C          59.3277   88.3079    7.4949 C.ar    1  UNL1        0.0000
     14 C          60.1218   89.2570    8.3426 C.ar    1  UNL1        0.0012
     15 C          60.9852   88.7305    9.4504 C.ar    1  UNL1        0.0152
     16 C          61.8739   89.4185   10.4437 C.ar    1  UNL1        0.0804
     17 C          62.3803   90.7558   10.8969 C.ar    1  UNL1        0.1177
     18 N          63.3119   90.5317   12.0511 N.ar    1  UNL1       -0.2223
     19 C          63.3813   89.0561   12.3112 C.ar    1  UNL1        0.1788
     20 N          62.4926   88.3681   11.3178 N.ar    1  UNL1       -0.3069
     21 C          63.7945   80.3907   13.8458 C.3     1  UNL1        0.1960
     22 S          63.4328   81.7186   13.2495 S.O2    1  UNL1        0.0457
     23 O          63.1424   81.0508   11.9382 O.2     1  UNL1       -0.1572
     24 O          63.7232   82.3866   14.5609 O.2     1  UNL1       -0.1572
@<TRIPOS>BOND
     1    21    22    1
     2    22    23    2
     3    22    24    2
     4    22     1    1
     5     1     2    1
     6     2     3    1
     7     4     3    1
     8     4     9    1
     9     9    10    1
    10    10    11   ar
    11    11    12   ar
    12    12    13   ar
    13    13    14   ar
    14    14    15   ar
    15    15    16    1
    16    16    17   ar
    17    17    18   ar
    18    18    19   ar
    19    19    20   ar
    20     4     5    1
    21     5     6    1
    22     5     7    1
    23     7     1    1
    24     9    20    1
    25    15    10   ar
    26    20    16   ar
    27     6     8    1
@<TRIPOS>MOLECULE
*****
 24 27 0 0 0
SMALL
GASTEIGER

@<TRIPOS>ATOM
      1 N          63.0141   82.9383   12.7195 N.3     1  UNL1       -0.1569
      2 C          62.4848   84.0242   13.6087 C.3     1  UNL1        0.0957
      3 C          62.1659   85.3735   13.0362 C.3     1  UNL1        0.0238
      4 C          62.3764   85.6369   11.5745 C.3     1  UNL1        0.0548
      5 C          62.9057   84.5510   10.6855 C.3     1  UNL1        0.1303
      6 O          63.1161   84.8143    9.2238 O.3     1  UNL1       -0.3829
      7 C          63.2245   83.2017   11.2579 C.3     1  UNL1        0.1246
      8 H          63.4601   84.0138    8.7973 H       1  UNL1        0.2104
      9 C          62.0575   86.9862   11.0021 C.3     1  UNL1        0.1118
     10 C          62.5922   88.2998   11.4903 C.ar    1  UNL1       -0.0002
     11 C          63.5316   88.6487   12.6065 C.ar    1  UNL1       -0.0024
     12 C          63.8919   90.0819   12.8632 C.ar    1  UNL1       -0.0003
     13 C          63.3128   91.1663   12.0037 C.ar    1  UNL1        0.0000
     14 C          62.3735   90.8175   10.8876 C.ar    1  UNL1        0.0012
     15 C          62.0132   89.3843   10.6309 C.ar    1  UNL1        0.0152
     16 C          61.1205   88.7408    9.6115 C.ar    1  UNL1        0.0804
     17 C          60.2109   89.0134    8.4502 C.ar    1  UNL1        0.1177
     18 N          59.6762   87.6997    7.9620 N.ar    1  UNL1       -0.2223
     19 C          60.2553   86.6153    8.8214 C.ar    1  UNL1        0.1788
     20 N          61.1479   87.2587    9.8409 N.ar    1  UNL1       -0.3069
     21 C          63.6519   80.2397   13.8643 C.3     1  UNL1        0.1960
     22 S          63.3330   81.5890   13.2920 S.O2    1  UNL1        0.0457
     23 O          63.5834   82.2164   14.6313 O.2     1  UNL1       -0.1572
     24 O          63.0826   80.9617   11.9526 O.2     1  UNL1       -0.1572
@<TRIPOS>BOND
     1    21    22    1
     2    22    23    2
     3    22    24    2
     4    22     1    1
     5     1     2    1
     6     2     3    1
     7     4     3    1
     8     4     9    1
     9     9    10    1
    10    10    11   ar
    11    11    12   ar
    12    12    13   ar
    13    13    14   ar
    14    14    15   ar
    15    15    16    1
    16    16    17   ar
    17    17    18   ar
    18    18    19   ar
    19    19    20   ar
    20     4     5    1
    21     5     6    1
    22     5     7    1
    23     7     1    1
    24     9    20    1
    25    15    10   ar
    26    20    16   ar
    27     6     8    1
@<TRIPOS>MOLECULE
*****
 24 27 0 0 0
SMALL
GASTEIGER

@<TRIPOS>ATOM
      1 N          60.4104   87.3426    8.8895 N.3     1  UNL1       -0.1569
      2 C          60.1116   87.6443   10.3282 C.3     1  UNL1        0.0957
      3 C          60.8910   86.9645   11.4146 C.3     1  UNL1        0.0238
      4 C          61.9694   85.9830   11.0624 C.3     1  UNL1        0.0548
      5 C          62.2681   85.6814    9.6238 C.3     1  UNL1        0.1303
      6 O          63.3465   84.6999    9.2715 O.3     1  UNL1       -0.3829
      7 C          61.4887   86.3612    8.5374 C.3     1  UNL1        0.1246
      8 H          63.4097   84.6215    8.3068 H       1  UNL1        0.2104
      9 C          62.7488   85.3033   12.1489 C.3     1  UNL1        0.1118
     10 C          62.8808   83.8219   12.3446 C.ar    1  UNL1       -0.0002
     11 C          62.3245   82.6554   11.5833 C.ar    1  UNL1       -0.0024
     12 C          62.6340   81.2556   12.0244 C.ar    1  UNL1       -0.0003
     13 C          63.4999   81.0223   13.2268 C.ar    1  UNL1        0.0000
     14 C          64.0562   82.1888   13.9881 C.ar    1  UNL1        0.0012
     15 C          63.7467   83.5886   13.5470 C.ar    1  UNL1        0.0152
     16 C          64.1498   84.9257   14.0944 C.ar    1  UNL1        0.0804
     17 C          64.9341   85.6079   15.1759 C.ar    1  UNL1        0.1177
     18 N          64.8021   87.0893   14.9801 N.ar    1  UNL1       -0.2223
     19 C          63.9362   87.3226   13.7777 C.ar    1  UNL1        0.1788
     20 N          63.5331   85.9855   13.2303 N.ar    1  UNL1       -0.3069
     21 C          58.8515   88.7020    6.7166 C.3     1  UNL1        0.1960
     22 S          59.6309   88.0224    7.8031 S.O2    1  UNL1        0.0457
     23 O          60.0928   89.3575    8.3071 O.2     1  UNL1       -0.1572
     24 O          59.1691   86.6871    7.2991 O.2     1  UNL1       -0.1572
@<TRIPOS>BOND
     1    21    22    1
     2    22    23    2
     3    22    24    2
     4    22     1    1
     5     1     2    1
     6     2     3    1
     7     4     3    1
     8     4     9    1
     9     9    10    1
    10    10    11   ar
    11    11    12   ar
    12    12    13   ar
    13    13    14   ar
    14    14    15   ar
    15    15    16    1
    16    16    17   ar
    17    17    18   ar
    18    18    19   ar
    19    19    20   ar
    20     4     5    1
    21     5     6    1
    22     5     7    1
    23     7     1    1
    24     9    20    1
    25    15    10   ar
    26    20    16   ar
    27     6     8    1
@<TRIPOS>MOLECULE
*****
 24 27 0 0 0
SMALL
GASTEIGER

@<TRIPOS>ATOM
      1 N          62.7693   82.1405   12.8774 N.3     1  UNL1       -0.1569
      2 C          62.9893   82.7314   11.5164 C.3     1  UNL1        0.0957
      3 C          63.0315   84.2208   11.3433 C.3     1  UNL1        0.0238
      4 C          62.8537   85.1193   12.5313 C.3     1  UNL1        0.0548
      5 C          62.6337   84.5283   13.8922 C.3     1  UNL1        0.1303
      6 O          62.4559   85.4267   15.0802 O.3     1  UNL1       -0.3829
      7 C          62.5915   83.0389   14.0653 C.3     1  UNL1        0.1246
      8 H          62.3253   84.8880   15.8763 H       1  UNL1        0.2104
      9 C          62.8959   86.6087   12.3582 C.3     1  UNL1        0.1118
     10 C          62.2311   87.3880   11.2624 C.ar    1  UNL1       -0.0002
     11 C          61.3886   86.9623   10.0967 C.ar    1  UNL1       -0.0024
     12 C          60.8496   87.9897    9.1460 C.ar    1  UNL1       -0.0003
     13 C          61.1531   89.4428    9.3610 C.ar    1  UNL1        0.0000
     14 C          61.9956   89.8686   10.5267 C.ar    1  UNL1        0.0012
     15 C          62.5346   88.8412   11.4774 C.ar    1  UNL1        0.0152
     16 C          63.3869   88.9599   12.7060 C.ar    1  UNL1        0.0804
     17 C          64.1013   89.9314   13.5982 C.ar    1  UNL1        0.1177
     18 N          64.7661   89.1519   14.6939 N.ar    1  UNL1       -0.2223
     19 C          64.4626   87.6987   14.4789 C.ar    1  UNL1        0.1788
     20 N          63.6102   87.5801   13.2503 N.ar    1  UNL1       -0.3069
     21 C          62.6849   79.1617   13.2235 C.3     1  UNL1        0.1960
     22 S          62.7271   80.6511   13.0505 S.O2    1  UNL1        0.0457
     23 O          62.6984   80.8250   14.5401 O.2     1  UNL1       -0.1572
     24 O          62.7558   80.4772   11.5609 O.2     1  UNL1       -0.1572
@<TRIPOS>BOND
     1    21    22    1
     2    22    23    2
     3    22    24    2
     4    22     1    1
     5     1     2    1
     6     2     3    1
     7     4     3    1
     8     4     9    1
     9     9    10    1
    10    10    11   ar
    11    11    12   ar
    12    12    13   ar
    13    13    14   ar
    14    14    15   ar
    15    15    16    1
    16    16    17   ar
    17    17    18   ar
    18    18    19   ar
    19    19    20   ar
    20     4     5    1
    21     5     6    1
    22     5     7    1
    23     7     1    1
    24     9    20    1
    25    15    10   ar
    26    20    16   ar
    27     6     8    1
@<TRIPOS>MOLECULE
*****
 24 27 0 0 0
SMALL
GASTEIGER

@<TRIPOS>ATOM
      1 N          62.7512   81.9914   12.8294 N.3     1  UNL1       -0.1569
      2 C          63.0923   82.5185   11.4671 C.3     1  UNL1        0.0957
      3 C          63.0689   83.9956   11.2070 C.3     1  UNL1        0.0238
      4 C          62.7043   84.9456   12.3091 C.3     1  UNL1        0.0548
      5 C          62.3631   84.4184   13.6713 C.3     1  UNL1        0.1303
      6 O          61.9985   85.3683   14.7735 O.3     1  UNL1       -0.3829
      7 C          62.3866   82.9413   13.9315 C.3     1  UNL1        0.1246
      8 H          61.8081   84.8675   15.5821 H       1  UNL1        0.2104
      9 C          62.6808   86.4227   12.0490 C.3     1  UNL1        0.1118
     10 C          63.3522   87.4751   12.8806 C.ar    1  UNL1       -0.0002
     11 C          64.1855   87.3908   14.1249 C.ar    1  UNL1       -0.0024
     12 C          64.7348   88.6408   14.7458 C.ar    1  UNL1       -0.0003
     13 C          64.4508   89.9753   14.1224 C.ar    1  UNL1        0.0000
     14 C          63.6175   90.0596   12.8780 C.ar    1  UNL1        0.0012
     15 C          63.0682   88.8095   12.2571 C.ar    1  UNL1        0.0152
     16 C          62.2213   88.5817   11.0402 C.ar    1  UNL1        0.0804
     17 C          61.5223   89.2657    9.9028 C.ar    1  UNL1        0.1177
     18 N          60.8508   88.2132    9.0713 N.ar    1  UNL1       -0.2223
     19 C          61.1349   86.8788    9.6947 C.ar    1  UNL1        0.1788
     20 N          61.9818   87.1066   10.9116 N.ar    1  UNL1       -0.3069
     21 C          62.7981   79.0373   13.3498 C.3     1  UNL1        0.1960
     22 S          62.7747   80.5143   13.0895 S.O2    1  UNL1        0.0457
     23 O          62.7703   80.2540   11.6123 O.2     1  UNL1       -0.1572
     24 O          62.7790   80.7746   14.5668 O.2     1  UNL1       -0.1572
@<TRIPOS>BOND
     1    21    22    1
     2    22    23    2
     3    22    24    2
     4    22     1    1
     5     1     2    1
     6     2     3    1
     7     4     3    1
     8     4     9    1
     9     9    10    1
    10    10    11   ar
    11    11    12   ar
    12    12    13   ar
    13    13    14   ar
    14    14    15   ar
    15    15    16    1
    16    16    17   ar
    17    17    18   ar
    18    18    19   ar
    19    19    20   ar
    20     4     5    1
    21     5     6    1
    22     5     7    1
    23     7     1    1
    24     9    20    1
    25    15    10   ar
    26    20    16   ar
    27     6     8    1
@<TRIPOS>MOLECULE
*****
 24 27 0 0 0
SMALL
GASTEIGER

@<TRIPOS>ATOM
      1 N          60.3359   92.2610    3.5959 N.3     1  UNL1       -0.1569
      2 C          59.7893   93.2916    2.6529 C.3     1  UNL1        0.0957
      3 C          60.6979   93.9611    1.6649 C.3     1  UNL1        0.0238
      4 C          62.1532   93.6001    1.6198 C.3     1  UNL1        0.0548
      5 C          62.6997   92.5696    2.5627 C.3     1  UNL1        0.1303
      6 O          64.1550   92.2084    2.5177 O.3     1  UNL1       -0.3829
      7 C          61.7911   91.9000    3.5508 C.3     1  UNL1        0.1246
      8 H          64.3412   91.5322    3.1877 H       1  UNL1        0.2104
      9 C          63.0618   94.2696    0.6317 C.3     1  UNL1        0.1118
     10 C          63.0470   94.0709   -0.8550 C.ar    1  UNL1       -0.0002
     11 C          62.1945   93.2157   -1.7448 C.ar    1  UNL1       -0.0024
     12 C          62.4158   93.2234   -3.2284 C.ar    1  UNL1       -0.0003
     13 C          63.4895   94.0864   -3.8220 C.ar    1  UNL1        0.0000
     14 C          64.3420   94.9416   -2.9322 C.ar    1  UNL1        0.0012
     15 C          64.1207   94.9339   -1.4486 C.ar    1  UNL1        0.0152
     16 C          64.7990   95.6659   -0.3288 C.ar    1  UNL1        0.0804
     17 C          65.8819   96.6517   -0.0036 C.ar    1  UNL1        0.1177
     18 N          65.8967   96.8503    1.4831 N.ar    1  UNL1       -0.2223
     19 C          64.8229   95.9874    2.0768 C.ar    1  UNL1        0.1788
     20 N          64.1446   95.2553    0.9569 N.ar    1  UNL1       -0.3069
     21 C          58.5187   90.9221    5.5719 C.3     1  UNL1        0.1960
     22 S          59.4274   91.5915    4.5839 S.O2    1  UNL1        0.0457
     23 O          60.5937   90.8297    5.1402 O.2     1  UNL1       -0.1572
     24 O          58.2611   92.3533    4.0275 O.2     1  UNL1       -0.1572
@<TRIPOS>BOND
     1    21    22    1
     2    22    23    2
     3    22    24    2
     4    22     1    1
     5     1     2    1
     6     2     3    1
     7     4     3    1
     8     4     9    1
     9     9    10    1
    10    10    11   ar
    11    11    12   ar
    12    12    13   ar
    13    13    14   ar
    14    14    15   ar
    15    15    16    1
    16    16    17   ar
    17    17    18   ar
    18    18    19   ar
    19    19    20   ar
    20     4     5    1
    21     5     6    1
    22     5     7    1
    23     7     1    1
    24     9    20    1
    25    15    10   ar
    26    20    16   ar
    27     6     8    1
@<TRIPOS>MOLECULE
*****
 24 27 0 0 0
SMALL
GASTEIGER

@<TRIPOS>ATOM
      1 N          56.5561   94.8883   -1.2983 N.3     1  UNL1       -0.1569
      2 C          57.4915   96.0477   -1.1226 C.3     1  UNL1        0.0957
      3 C          58.9456   95.8032   -0.8473 C.3     1  UNL1        0.0238
      4 C          59.4643   94.3991   -0.7476 C.3     1  UNL1        0.0548
      5 C          58.5289   93.2399   -0.9234 C.3     1  UNL1        0.1303
      6 O          59.0475   91.8358   -0.8238 O.3     1  UNL1       -0.3829
      7 C          57.0748   93.4844   -1.1987 C.3     1  UNL1        0.1246
      8 H          58.3182   91.2113   -0.9611 H       1  UNL1        0.2104
      9 C          60.9184   94.1546   -0.4723 C.3     1  UNL1        0.1118
     10 C          61.4840   93.4730    0.7383 C.ar    1  UNL1       -0.0002
     11 C          60.8322   92.8736    1.9490 C.ar    1  UNL1       -0.0024
     12 C          61.6737   92.2470    3.0210 C.ar    1  UNL1       -0.0003
     13 C          63.1671   92.2199    2.8823 C.ar    1  UNL1        0.0000
     14 C          63.8189   92.8193    1.6716 C.ar    1  UNL1        0.0012
     15 C          62.9774   93.4458    0.5996 C.ar    1  UNL1        0.0152
     16 C          63.3346   94.1106   -0.6967 C.ar    1  UNL1        0.0804
     17 C          64.4784   94.5047   -1.5836 C.ar    1  UNL1        0.1177
     18 N          63.9127   95.1863   -2.7942 N.ar    1  UNL1       -0.2223
     19 C          62.4194   95.2135   -2.6555 C.ar    1  UNL1        0.1788
     20 N          62.0621   94.5487   -1.3592 N.ar    1  UNL1       -0.3069
     21 C          53.6480   95.3776   -1.8490 C.3     1  UNL1        0.1960
     22 S          55.1020   95.1329   -1.5737 S.O2    1  UNL1        0.0457
     23 O          54.8710   93.6537   -1.6675 O.2     1  UNL1       -0.1572
     24 O          55.3331   96.6120   -1.4797 O.2     1  UNL1       -0.1572
@<TRIPOS>BOND
     1    21    22    1
     2    22    23    2
     3    22    24    2
     4    22     1    1
     5     1     2    1
     6     2     3    1
     7     4     3    1
     8     4     9    1
     9     9    10    1
    10    10    11   ar
    11    11    12   ar
    12    12    13   ar
    13    13    14   ar
    14    14    15   ar
    15    15    16    1
    16    16    17   ar
    17    17    18   ar
    18    18    19   ar
    19    19    20   ar
    20     4     5    1
    21     5     6    1
    22     5     7    1
    23     7     1    1
    24     9    20    1
    25    15    10   ar
    26    20    16   ar
    27     6     8    1
@<TRIPOS>MOLECULE
*****
 24 27 0 0 0
SMALL
GASTEIGER

@<TRIPOS>ATOM
      1 N          60.2439   92.0686    3.7705 N.3     1  UNL1       -0.1569
      2 C          59.6625   93.0677    2.8146 C.3     1  UNL1        0.0957
      3 C          60.5321   93.6974    1.7671 C.3     1  UNL1        0.0238
      4 C          61.9831   93.3280    1.6755 C.3     1  UNL1        0.0548
      5 C          62.5643   92.3290    2.6314 C.3     1  UNL1        0.1303
      6 O          64.0153   91.9595    2.5399 O.3     1  UNL1       -0.3829
      7 C          61.6948   91.6992    3.6789 C.3     1  UNL1        0.1246
      8 H          64.2266   91.3065    3.2254 H       1  UNL1        0.2104
      9 C          62.8526   93.9578    0.6280 C.3     1  UNL1        0.1118
     10 C          63.9699   94.9275    0.8759 C.ar    1  UNL1       -0.0002
     11 C          64.5219   95.5213    2.1379 C.ar    1  UNL1       -0.0024
     12 C          65.6695   96.4852    2.0737 C.ar    1  UNL1       -0.0003
     13 C          66.2650   96.8551    0.7476 C.ar    1  UNL1        0.0000
     14 C          65.7129   96.2613   -0.5143 C.ar    1  UNL1        0.0012
     15 C          64.5654   95.2974   -0.4502 C.ar    1  UNL1        0.0152
     16 C          63.8161   94.5564   -1.5176 C.ar    1  UNL1        0.0804
     17 C          63.7211   94.3271   -2.9970 C.ar    1  UNL1        0.1177
     18 N          62.6038   93.3574   -3.2449 N.ar    1  UNL1       -0.2223
     19 C          62.0083   92.9874   -1.9188 C.ar    1  UNL1        0.1788
     20 N          62.7576   93.7284   -0.8513 N.ar    1  UNL1       -0.3069
     21 C          58.5047   90.8091    5.8655 C.3     1  UNL1        0.1960
     22 S          59.3743   91.4388    4.8180 S.O2    1  UNL1        0.0457
     23 O          60.4992   90.5237    5.2017 O.2     1  UNL1       -0.1572
     24 O          58.2494   92.3540    4.4343 O.2     1  UNL1       -0.1572
@<TRIPOS>BOND
     1    21    22    1
     2    22    23    2
     3    22    24    2
     4    22     1    1
     5     1     2    1
     6     2     3    1
     7     4     3    1
     8     4     9    1
     9     9    10    1
    10    10    11   ar
    11    11    12   ar
    12    12    13   ar
    13    13    14   ar
    14    14    15   ar
    15    15    16    1
    16    16    17   ar
    17    17    18   ar
    18    18    19   ar
    19    19    20   ar
    20     4     5    1
    21     5     6    1
    22     5     7    1
    23     7     1    1
    24     9    20    1
    25    15    10   ar
    26    20    16   ar
    27     6     8    1
