@<TRIPOS>MOLECULE
*****
 54 57 0 0 0
SMALL
GASTEIGER

@<TRIPOS>ATOM
      1 C          62.6191   91.2166   11.2401 C.3     1  UNL1        0.0784
      2 C          63.6439   89.7128   13.0944 C.2     1  UNL1        0.2403
      3 O          63.5488   88.5248   12.1836 O.2     1  UNL1       -0.2733
      4 N          63.1790   91.0587   12.6227 N.am    1  UNL1       -0.3042
      5 H          63.2414   91.8384   13.2206 H       1  UNL1        0.1494
      6 C          64.2038   89.5549   14.4770 C.3     1  UNL1        0.1496
      7 N          63.2018   86.4668   16.7595 N.am    1  UNL1       -0.2567
      8 C          62.1401   86.0846   17.7479 C.3     1  UNL1        0.1168
      9 C          63.1720   87.8197   16.1125 C.2     1  UNL1        0.3046
     10 O          62.0805   88.7904   16.4537 O.2     1  UNL1       -0.2526
     11 N          64.2337   88.2019   15.1241 N.am    1  UNL1       -0.2824
     12 H          64.9500   87.5648   14.9001 H       1  UNL1        0.1514
     13 C          64.2933   85.4960   16.4183 C.3     1  UNL1        0.1413
     14 C          63.2162   82.7406   13.9057 C.ar    1  UNL1        0.0875
     15 N          63.0220   83.4911   15.1899 N.ar    1  UNL1       -0.2453
     16 C          64.1062   84.5225   15.2926 C.ar    1  UNL1        0.0858
     17 C          64.9706   84.4096   14.0719 C.ar    1  UNL1        0.0530
     18 S          64.4206   83.3083   13.2148 S.2     1  UNL1       -0.0705
     19 C          61.1859   81.1488   14.2115 C.3     1  UNL1        0.0069
     20 C          62.3571   81.6194   13.4011 C.3     1  UNL1        0.0465
     21 C          62.6691   80.9688   12.0860 C.3     1  UNL1        0.0069
     22 C          64.7339   90.7498   15.2125 C.3     1  UNL1        0.0270
     23 C          63.9673   91.3194   16.3692 C.3     1  UNL1        0.0022
     24 C          66.0306   91.3753   14.7913 C.3     1  UNL1        0.0022
     25 C          61.1533   91.0108   10.9966 C.3     1  UNL1        0.0508
     26 C          60.5406   89.6581   11.2082 C.3     1  UNL1        0.1304
     27 O          60.0788   89.2495   12.5756 O.3     1  UNL1       -0.3827
     28 H          60.2480   89.9700   13.2027 H       1  UNL1        0.2104
     29 C          60.3897   88.7139   10.0524 C.3     1  UNL1        0.1059
     30 N          60.4176   89.2381    8.6473 N.am    1  UNL1       -0.2696
     31 C          59.4816   88.6763    7.6185 C.2     1  UNL1        0.4020
     32 O          58.5177   87.5904    7.9949 O.2     1  UNL1       -0.2264
     33 H          61.0502   89.9508    8.4003 H       1  UNL1        0.1528
     34 O          59.5095   89.2005    6.2133 O.3     1  UNL1       -0.4291
     35 C          59.0957   90.6146    5.9320 C.3     1  UNL1        0.2447
     36 C          59.7786   91.3944    4.8478 C.ar    1  UNL1        0.0714
     37 C          61.2156   91.2626    4.4384 C.ar    1  UNL1        0.1053
     38 N          61.4695   92.2296    3.3202 N.ar    1  UNL1       -0.2350
     39 C          60.1894   92.9590    3.0385 C.ar    1  UNL1        0.1343
     40 S          59.1444   92.4428    3.9826 S.2     1  UNL1       -0.0652
     41 C          60.2109   87.2457   10.3018 C.3     1  UNL1        0.0485
     42 C          61.3031   86.2845    9.9371 C.ar    1  UNL1       -0.0204
     43 C          61.7598   86.1735    8.5126 C.ar    1  UNL1       -0.0042
     44 C          62.8521   85.2122    8.1479 C.ar    1  UNL1       -0.0003
     45 C          63.4877   84.3621    9.2077 C.ar    1  UNL1       -0.0000
     46 C          63.0311   84.4731   10.6322 C.ar    1  UNL1       -0.0003
     47 C          61.9388   85.4343   10.9969 C.ar    1  UNL1       -0.0042
     48 C          63.5248   91.5803   10.1012 C.3     1  UNL1        0.0460
     49 C          64.7505   92.4078   10.3524 C.ar    1  UNL1       -0.0205
     50 C          65.9974   91.7609   10.8784 C.ar    1  UNL1       -0.0042
     51 C          67.2230   92.5884   11.1296 C.ar    1  UNL1       -0.0003
     52 C          67.2017   94.0628   10.8547 C.ar    1  UNL1       -0.0000
     53 C          65.9548   94.7098   10.3287 C.ar    1  UNL1       -0.0003
     54 C          64.7292   93.8823   10.0775 C.ar    1  UNL1       -0.0042
@<TRIPOS>BOND
     1    19    20    1
     2    20    21    1
     3    20    14    1
     4    14    15   ar
     5    15    16   ar
     6    16    13    1
     7    13     7    1
     8     7     8    1
     9     7     9   am
    10     9    10    2
    11     9    11   am
    12     6    11    1
    13     6     2    1
    14     2     3    2
    15     2     4   am
    16     4     1    1
    17     1    48    1
    18    48    49    1
    19    49    50   ar
    20    50    51   ar
    21    51    52   ar
    22    52    53   ar
    23    53    54   ar
    24     1    25    1
    25    25    26    1
    26    26    27    1
    27    26    29    1
    28    29    41    1
    29    41    42    1
    30    42    43   ar
    31    43    44   ar
    32    44    45   ar
    33    45    46   ar
    34    46    47   ar
    35    29    30    1
    36    30    31   am
    37    31    32    2
    38    31    34    1
    39    34    35    1
    40    35    36    1
    41    36    37   ar
    42    37    38   ar
    43    38    39   ar
    44    39    40   ar
    45     6    22    1
    46    22    23    1
    47    22    24    1
    48    16    17   ar
    49    17    18   ar
    50    18    14   ar
    51    54    49   ar
    52    47    42   ar
    53    40    36   ar
    54    11    12    1
    55     4     5    1
    56    27    28    1
    57    30    33    1
@<TRIPOS>MOLECULE
*****
 54 57 0 0 0
SMALL
GASTEIGER

@<TRIPOS>ATOM
      1 C          62.6080   85.9686   10.8167 C.3     1  UNL1        0.0784
      2 C          61.1159   88.0657   11.1720 C.2     1  UNL1        0.2403
      3 O          60.0977   87.5015   10.2260 O.2     1  UNL1       -0.2733
      4 N          62.3711   87.2993   11.4673 N.am    1  UNL1       -0.3042
      5 H          63.0394   87.6695   12.0882 H       1  UNL1        0.1494
      6 C          60.8791   89.3963   11.8226 C.3     1  UNL1        0.1496
      7 N          64.0408   91.7727   11.4955 N.am    1  UNL1       -0.2567
      8 C          64.8755   92.4082   10.4234 C.3     1  UNL1        0.1168
      9 C          62.8773   90.9023   11.1230 C.2     1  UNL1        0.3046
     10 O          62.5485   90.6673    9.6784 O.2     1  UNL1       -0.2526
     11 N          62.0426   90.2668   12.1951 N.am    1  UNL1       -0.2824
     12 H          62.2584   90.4209   13.1432 H       1  UNL1        0.1514
     13 C          64.3696   92.0076   12.9401 C.3     1  UNL1        0.1413
     14 C          67.7815   92.5544   14.7079 C.ar    1  UNL1        0.0875
     15 N          66.2830   92.6213   14.7028 N.ar    1  UNL1       -0.2453
     16 C          65.8009   92.1151   13.3756 C.ar    1  UNL1        0.0858
     17 C          67.0014   91.7352   12.5605 C.ar    1  UNL1        0.0530
     18 S          68.2255   92.0067   13.3838 S.2     1  UNL1       -0.0705
     19 C          69.0306   94.4085   16.0315 C.3     1  UNL1        0.0069
     20 C          68.6785   92.9632   15.8385 C.3     1  UNL1        0.0465
     21 C          69.2233   91.9268   16.7760 C.3     1  UNL1        0.0069
     22 C          59.4788   89.8566   12.1007 C.3     1  UNL1        0.0270
     23 C          58.5724   89.0246   12.9587 C.3     1  UNL1        0.0022
     24 C          58.9850   91.1488   11.5209 C.3     1  UNL1        0.0022
     25 C          62.2055   84.7070   11.5213 C.3     1  UNL1        0.0508
     26 C          63.1491   84.0537   12.4871 C.3     1  UNL1        0.1304
     27 O          64.6277   84.1001   12.2387 O.3     1  UNL1       -0.3827
     28 H          64.8026   84.5863   11.4178 H       1  UNL1        0.2104
     29 C          62.6142   83.3540   13.7013 C.3     1  UNL1        0.1059
     30 N          61.9440   84.1427   14.7870 N.am    1  UNL1       -0.2696
     31 C          62.7651   84.7692   15.8748 C.2     1  UNL1        0.4020
     32 O          64.2563   84.6071   15.8769 O.2     1  UNL1       -0.2264
     33 H          60.9653   84.2491   14.7857 H       1  UNL1        0.1528
     34 O          62.0949   85.5579   16.9606 O.3     1  UNL1       -0.4291
     35 C          62.7528   86.7898   17.5080 C.3     1  UNL1        0.2447
     36 C          63.1995   87.8780   16.5773 C.ar    1  UNL1        0.0714
     37 C          63.9247   87.6848   15.2786 C.ar    1  UNL1        0.1053
     38 N          64.1729   89.0378   14.6805 N.ar    1  UNL1       -0.2350
     39 C          63.6012   90.0673   15.6097 C.ar    1  UNL1        0.1343
     40 S          62.9996   89.3505   16.7820 S.2     1  UNL1       -0.0652
     41 C          62.7494   81.8656   13.8297 C.3     1  UNL1        0.0485
     42 C          62.7913   81.0075   12.6002 C.ar    1  UNL1       -0.0204
     43 C          62.4675   79.5459   12.6943 C.ar    1  UNL1       -0.0042
     44 C          62.5095   78.6877   11.4646 C.ar    1  UNL1       -0.0003
     45 C          62.8752   79.2912   10.1410 C.ar    1  UNL1       -0.0000
     46 C          63.1990   80.7528   10.0469 C.ar    1  UNL1       -0.0003
     47 C          63.1571   81.6109   11.2765 C.ar    1  UNL1       -0.0042
     48 C          63.2473   85.8996    9.4616 C.3     1  UNL1        0.0460
     49 C          62.4422   85.4620    8.2739 C.ar    1  UNL1       -0.0205
     50 C          63.0781   84.6247    7.2041 C.ar    1  UNL1       -0.0042
     51 C          62.2731   84.1871    6.0165 C.ar    1  UNL1       -0.0003
     52 C          60.8321   84.5868    5.8987 C.ar    1  UNL1       -0.0000
     53 C          60.1962   85.4241    6.9686 C.ar    1  UNL1       -0.0003
     54 C          61.0012   85.8617    8.1561 C.ar    1  UNL1       -0.0042
@<TRIPOS>BOND
     1    19    20    1
     2    20    21    1
     3    20    14    1
     4    14    15   ar
     5    15    16   ar
     6    16    13    1
     7    13     7    1
     8     7     8    1
     9     7     9   am
    10     9    10    2
    11     9    11   am
    12     6    11    1
    13     6     2    1
    14     2     3    2
    15     2     4   am
    16     4     1    1
    17     1    48    1
    18    48    49    1
    19    49    50   ar
    20    50    51   ar
    21    51    52   ar
    22    52    53   ar
    23    53    54   ar
    24     1    25    1
    25    25    26    1
    26    26    27    1
    27    26    29    1
    28    29    41    1
    29    41    42    1
    30    42    43   ar
    31    43    44   ar
    32    44    45   ar
    33    45    46   ar
    34    46    47   ar
    35    29    30    1
    36    30    31   am
    37    31    32    2
    38    31    34    1
    39    34    35    1
    40    35    36    1
    41    36    37   ar
    42    37    38   ar
    43    38    39   ar
    44    39    40   ar
    45     6    22    1
    46    22    23    1
    47    22    24    1
    48    16    17   ar
    49    17    18   ar
    50    18    14   ar
    51    54    49   ar
    52    47    42   ar
    53    40    36   ar
    54    11    12    1
    55     4     5    1
    56    27    28    1
    57    30    33    1
@<TRIPOS>MOLECULE
*****
 54 57 0 0 0
SMALL
GASTEIGER

@<TRIPOS>ATOM
      1 C          61.7615   88.5784   11.2882 C.3     1  UNL1        0.0784
      2 C          63.4214   90.1092   12.5734 C.2     1  UNL1        0.2403
      3 O          63.7755   90.8019   11.2909 O.2     1  UNL1       -0.2733
      4 N          62.4144   88.9974   12.5721 N.am    1  UNL1       -0.3042
      5 H          62.1819   88.5428   13.4138 H       1  UNL1        0.1494
      6 C          64.0742   90.5282   13.8572 C.3     1  UNL1        0.1496
      7 N          67.0954   93.0241   14.4840 N.am    1  UNL1       -0.2567
      8 C          68.5022   92.9937   15.0037 C.3     1  UNL1        0.1168
      9 C          66.2882   91.7610   14.4305 C.2     1  UNL1        0.3046
     10 O          66.8877   90.4675   14.8968 O.2     1  UNL1       -0.2526
     11 N          64.8815   91.7914   13.9107 N.am    1  UNL1       -0.2824
     12 H          64.4880   92.6404   13.6047 H       1  UNL1        0.1514
     13 C          66.4960   94.3177   14.0177 C.3     1  UNL1        0.1413
     14 C          67.0561   94.6554   10.1918 C.ar    1  UNL1        0.0875
     15 N          67.1648   93.8746   11.4679 N.ar    1  UNL1       -0.2453
     16 C          66.5902   94.7104   12.5731 C.ar    1  UNL1        0.0858
     17 C          66.1263   96.0077   11.9800 C.ar    1  UNL1        0.0530
     18 S          66.4143   95.9738   10.5083 S.2     1  UNL1       -0.0705
     19 C          68.2996   92.9307    8.6989 C.3     1  UNL1        0.0069
     20 C          67.5096   94.1983    8.8371 C.3     1  UNL1        0.0465
     21 C          67.1730   95.0087    7.6205 C.3     1  UNL1        0.0069
     22 C          63.9198   89.6842   15.0875 C.3     1  UNL1        0.0270
     23 C          63.3927   90.2926   16.3532 C.3     1  UNL1        0.0022
     24 C          64.2926   88.2317   15.0521 C.3     1  UNL1        0.0022
     25 C          62.3030   87.4108   10.5177 C.3     1  UNL1        0.0508
     26 C          62.6350   86.1322   11.2283 C.3     1  UNL1        0.1304
     27 O          62.6864   86.0987   12.7271 O.3     1  UNL1       -0.3827
     28 H          62.4818   86.9798   13.0774 H       1  UNL1        0.2104
     29 C          62.9156   84.8872   10.4402 C.3     1  UNL1        0.1059
     30 N          62.5740   83.5438   11.0135 N.am    1  UNL1       -0.2696
     31 C          63.6181   82.4689   11.0792 C.2     1  UNL1        0.4020
     32 O          65.0038   82.7373   10.5716 O.2     1  UNL1       -0.2264
     33 H          61.6645   83.3677   11.3467 H       1  UNL1        0.1528
     34 O          63.2764   81.1255   11.6525 O.3     1  UNL1       -0.4291
     35 C          63.1312   80.9581   13.1360 C.3     1  UNL1        0.2447
     36 C          63.1973   82.1563   14.0360 C.ar    1  UNL1        0.0714
     37 C          64.4401   82.9038   14.4190 C.ar    1  UNL1        0.1053
     38 N          64.0431   84.0268   15.3307 N.ar    1  UNL1       -0.2350
     39 C          62.5549   83.9734   15.5112 C.ar    1  UNL1        0.1343
     40 S          62.0322   82.8173   14.7110 S.2     1  UNL1       -0.0652
     41 C          63.5378   84.9855    9.0789 C.3     1  UNL1        0.0485
     42 C          62.6894   84.8210    7.8529 C.ar    1  UNL1       -0.0204
     43 C          63.3116   84.3671    6.5657 C.ar    1  UNL1       -0.0042
     44 C          62.4631   84.2026    5.3396 C.ar    1  UNL1       -0.0003
     45 C          60.9926   84.4920    5.4008 C.ar    1  UNL1       -0.0000
     46 C          60.3704   84.9458    6.6880 C.ar    1  UNL1       -0.0003
     47 C          61.2188   85.1104    7.9141 C.ar    1  UNL1       -0.0042
     48 C          60.5673   89.3268   10.7749 C.3     1  UNL1        0.0460
     49 C          60.0001   88.9994    9.4254 C.ar    1  UNL1       -0.0205
     50 C          59.2037   87.7433    9.2312 C.ar    1  UNL1       -0.0042
     51 C          58.6366   87.4160    7.8817 C.ar    1  UNL1       -0.0003
     52 C          58.8659   88.3448    6.7264 C.ar    1  UNL1       -0.0000
     53 C          59.6623   89.6010    6.9206 C.ar    1  UNL1       -0.0003
     54 C          60.2294   89.9283    8.2701 C.ar    1  UNL1       -0.0042
@<TRIPOS>BOND
     1    19    20    1
     2    20    21    1
     3    20    14    1
     4    14    15   ar
     5    15    16   ar
     6    16    13    1
     7    13     7    1
     8     7     8    1
     9     7     9   am
    10     9    10    2
    11     9    11   am
    12     6    11    1
    13     6     2    1
    14     2     3    2
    15     2     4   am
    16     4     1    1
    17     1    48    1
    18    48    49    1
    19    49    50   ar
    20    50    51   ar
    21    51    52   ar
    22    52    53   ar
    23    53    54   ar
    24     1    25    1
    25    25    26    1
    26    26    27    1
    27    26    29    1
    28    29    41    1
    29    41    42    1
    30    42    43   ar
    31    43    44   ar
    32    44    45   ar
    33    45    46   ar
    34    46    47   ar
    35    29    30    1
    36    30    31   am
    37    31    32    2
    38    31    34    1
    39    34    35    1
    40    35    36    1
    41    36    37   ar
    42    37    38   ar
    43    38    39   ar
    44    39    40   ar
    45     6    22    1
    46    22    23    1
    47    22    24    1
    48    16    17   ar
    49    17    18   ar
    50    18    14   ar
    51    54    49   ar
    52    47    42   ar
    53    40    36   ar
    54    11    12    1
    55     4     5    1
    56    27    28    1
    57    30    33    1
@<TRIPOS>MOLECULE
*****
 54 57 0 0 0
SMALL
GASTEIGER

@<TRIPOS>ATOM
      1 C          62.1651   89.2734   10.5469 C.3     1  UNL1        0.0784
      2 C          61.9546   86.7492   11.1251 C.2     1  UNL1        0.2403
      3 O          60.8905   87.0688   12.1328 O.2     1  UNL1       -0.2733
      4 N          62.5919   87.8515   10.3321 N.am    1  UNL1       -0.3042
      5 H          63.2903   87.6418    9.6707 H       1  UNL1        0.1494
      6 C          62.3814   85.3273   10.9103 C.3     1  UNL1        0.1496
      7 N          63.2453   83.3522   14.2423 N.am    1  UNL1       -0.2567
      8 C          64.2852   83.3523   15.3233 C.3     1  UNL1        0.1168
      9 C          63.3333   84.3398   13.1168 C.2     1  UNL1        0.3046
     10 O          64.4613   85.3276   13.0722 O.2     1  UNL1       -0.2526
     11 N          62.2933   84.3397   12.0358 N.am    1  UNL1       -0.2824
     12 H          61.5530   83.6914   12.0651 H       1  UNL1        0.1514
     13 C          62.1173   82.3643   14.2869 C.3     1  UNL1        0.1413
     14 C          62.5506   79.3993   11.8200 C.ar    1  UNL1        0.0875
     15 N          62.5095   80.8714   12.1046 N.ar    1  UNL1       -0.2453
     16 C          62.2399   81.0531   13.5690 C.ar    1  UNL1        0.0858
     17 C          62.1143   79.6932   14.1893 C.ar    1  UNL1        0.0530
     18 S          62.3063   78.6710   13.1084 S.2     1  UNL1       -0.0705
     19 C          62.7750   79.6075    9.2400 C.3     1  UNL1        0.0069
     20 C          62.7934   78.7664   10.4819 C.3     1  UNL1        0.0465
     21 C          63.0546   77.2925   10.3856 C.3     1  UNL1        0.0069
     22 C          62.8962   84.8932    9.5700 C.3     1  UNL1        0.0270
     23 C          62.4628   85.6169    8.3297 C.3     1  UNL1        0.0022
     24 C          63.8444   83.7352    9.4701 C.3     1  UNL1        0.0022
     25 C          63.0643   90.2237   11.2808 C.3     1  UNL1        0.0508
     26 C          62.8608   90.4681   12.7467 C.3     1  UNL1        0.1304
     27 O          61.6229   89.9626   13.4265 O.3     1  UNL1       -0.3827
     28 H          61.0636   89.5037   12.7804 H       1  UNL1        0.2104
     29 C          63.8951   91.2179   13.5327 C.3     1  UNL1        0.1059
     30 N          64.7413   92.2571   12.8589 N.am    1  UNL1       -0.2696
     31 C          66.2151   92.3165   13.1319 C.2     1  UNL1        0.4020
     32 O          66.8426   91.3367   14.0785 O.2     1  UNL1       -0.2264
     33 H          64.3295   92.9002   12.2376 H       1  UNL1        0.1528
     34 O          67.0613   93.3557   12.4580 O.3     1  UNL1       -0.4291
     35 C          66.4259   94.5961   11.9035 C.3     1  UNL1        0.2447
     36 C          66.7604   95.0535   10.5147 C.ar    1  UNL1        0.0714
     37 C          67.2565   94.1859    9.3962 C.ar    1  UNL1        0.1053
     38 N          67.4602   95.0550    8.1907 N.ar    1  UNL1       -0.2350
     39 C          67.0900   96.4598    8.5642 C.ar    1  UNL1        0.1343
     40 S          66.6575   96.4589   10.0004 S.2     1  UNL1       -0.0652
     41 C          64.0831   90.9286   14.9925 C.3     1  UNL1        0.0485
     42 C          63.8753   89.5378   15.5143 C.ar    1  UNL1       -0.0204
     43 C          63.1002   89.3195   16.7798 C.ar    1  UNL1       -0.0042
     44 C          62.8924   87.9286   17.3016 C.ar    1  UNL1       -0.0003
     45 C          63.4597   86.7560   16.5579 C.ar    1  UNL1       -0.0000
     46 C          64.2348   86.9743   15.2923 C.ar    1  UNL1       -0.0003
     47 C          64.4426   88.3651   14.7705 C.ar    1  UNL1       -0.0042
     48 C          60.8391   89.7450   10.0279 C.3     1  UNL1        0.0460
     49 C          60.1534   88.9912    8.9271 C.ar    1  UNL1       -0.0205
     50 C          59.6505   87.5994    9.1715 C.ar    1  UNL1       -0.0042
     51 C          58.9648   86.8457    8.0707 C.ar    1  UNL1       -0.0003
     52 C          58.7821   87.4838    6.7255 C.ar    1  UNL1       -0.0000
     53 C          59.2850   88.8757    6.4812 C.ar    1  UNL1       -0.0003
     54 C          59.9707   89.6294    7.5820 C.ar    1  UNL1       -0.0042
@<TRIPOS>BOND
     1    19    20    1
     2    20    21    1
     3    20    14    1
     4    14    15   ar
     5    15    16   ar
     6    16    13    1
     7    13     7    1
     8     7     8    1
     9     7     9   am
    10     9    10    2
    11     9    11   am
    12     6    11    1
    13     6     2    1
    14     2     3    2
    15     2     4   am
    16     4     1    1
    17     1    48    1
    18    48    49    1
    19    49    50   ar
    20    50    51   ar
    21    51    52   ar
    22    52    53   ar
    23    53    54   ar
    24     1    25    1
    25    25    26    1
    26    26    27    1
    27    26    29    1
    28    29    41    1
    29    41    42    1
    30    42    43   ar
    31    43    44   ar
    32    44    45   ar
    33    45    46   ar
    34    46    47   ar
    35    29    30    1
    36    30    31   am
    37    31    32    2
    38    31    34    1
    39    34    35    1
    40    35    36    1
    41    36    37   ar
    42    37    38   ar
    43    38    39   ar
    44    39    40   ar
    45     6    22    1
    46    22    23    1
    47    22    24    1
    48    16    17   ar
    49    17    18   ar
    50    18    14   ar
    51    54    49   ar
    52    47    42   ar
    53    40    36   ar
    54    11    12    1
    55     4     5    1
    56    27    28    1
    57    30    33    1
@<TRIPOS>MOLECULE
*****
 54 57 0 0 0
SMALL
GASTEIGER

@<TRIPOS>ATOM
      1 C          62.1331   88.9177   10.6134 C.3     1  UNL1        0.0784
      2 C          62.3142   86.3811   11.1455 C.2     1  UNL1        0.2403
      3 O          61.0139   86.4445   11.8906 O.2     1  UNL1       -0.2733
      4 N          62.8738   87.6177   10.5069 N.am    1  UNL1       -0.3042
      5 H          63.7272   87.5761   10.0178 H       1  UNL1        0.1494
      6 C          63.0549   85.0811   11.0390 C.3     1  UNL1        0.1496
      7 N          63.1090   82.2682   13.8380 N.am    1  UNL1       -0.2567
      8 C          62.4272   80.9701   14.1543 C.3     1  UNL1        0.1168
      9 C          62.7411   83.0256   12.5967 C.2     1  UNL1        0.3046
     10 O          61.6912   82.4850   11.6716 O.2     1  UNL1       -0.2526
     11 N          63.4229   84.3237   12.2803 N.am    1  UNL1       -0.2824
     12 H          64.1120   84.6785   12.8874 H       1  UNL1        0.1514
     13 C          64.1589   82.8088   14.7630 C.3     1  UNL1        0.1413
     14 C          63.6316   86.3393   16.2872 C.ar    1  UNL1        0.0875
     15 N          63.3415   84.8679   16.2587 N.ar    1  UNL1       -0.2453
     16 C          64.1447   84.2584   15.1481 C.ar    1  UNL1        0.0858
     17 C          64.9313   85.3531   14.4902 C.ar    1  UNL1        0.0530
     18 S          64.6142   86.6392   15.1941 S.2     1  UNL1       -0.0705
     19 C          62.5281   86.8832   18.5755 C.3     1  UNL1        0.0069
     20 C          63.0426   87.3358   17.2411 C.3     1  UNL1        0.0465
     21 C          62.9680   88.7848   16.8606 C.3     1  UNL1        0.0069
     22 C          63.4276   84.5386    9.6911 C.3     1  UNL1        0.0270
     23 C          62.9548   85.2306    8.4471 C.3     1  UNL1        0.0022
     24 C          64.2732   83.3040    9.5873 C.3     1  UNL1        0.0022
     25 C          62.8843   90.1899   10.8727 C.3     1  UNL1        0.0508
     26 C          63.7909   90.2962   12.0630 C.3     1  UNL1        0.1304
     27 O          63.8796   89.1631   13.0419 O.3     1  UNL1       -0.3827
     28 H          63.2917   88.4451   12.7594 H       1  UNL1        0.2104
     29 C          64.6088   91.5357   12.2744 C.3     1  UNL1        0.1059
     30 N          65.4096   91.7003   13.5321 N.am    1  UNL1       -0.2696
     31 C          64.7433   91.5625   14.8689 C.2     1  UNL1        0.4020
     32 O          63.2763   91.2600   14.9481 O.2     1  UNL1       -0.2264
     33 H          66.3725   91.8989   13.4801 H       1  UNL1        0.1528
     34 O          65.5441   91.7271   16.1265 O.3     1  UNL1       -0.4291
     35 C          66.3783   92.9573   16.3288 C.3     1  UNL1        0.2447
     36 C          67.7609   93.0291   15.7516 C.ar    1  UNL1        0.0714
     37 C          68.2889   92.1961   14.6215 C.ar    1  UNL1        0.1053
     38 N          69.7126   92.5987   14.3746 N.ar    1  UNL1       -0.2350
     39 C          70.0646   93.6806   15.3522 C.ar    1  UNL1        0.1343
     40 S          68.8583   93.9466   16.2033 S.2     1  UNL1       -0.0652
     41 C          64.6260   92.6105   11.2282 C.3     1  UNL1        0.0485
     42 C          65.9190   93.0023   10.5767 C.ar    1  UNL1       -0.0204
     43 C          66.1426   94.4221   10.1476 C.ar    1  UNL1       -0.0042
     44 C          67.4357   94.8139    9.4960 C.ar    1  UNL1       -0.0003
     45 C          68.5051   93.7859    9.2735 C.ar    1  UNL1       -0.0000
     46 C          68.2815   92.3661    9.7026 C.ar    1  UNL1       -0.0003
     47 C          66.9885   91.9743   10.3542 C.ar    1  UNL1       -0.0042
     48 C          60.6411   88.9455   10.4607 C.3     1  UNL1        0.0460
     49 C          60.0133   88.5541    9.1558 C.ar    1  UNL1       -0.0205
     50 C          59.5402   87.1467    8.9434 C.ar    1  UNL1       -0.0042
     51 C          58.9125   86.7554    7.6385 C.ar    1  UNL1       -0.0003
     52 C          58.7578   87.7715    6.5461 C.ar    1  UNL1       -0.0000
     53 C          59.2309   89.1790    6.7585 C.ar    1  UNL1       -0.0003
     54 C          59.8586   89.5703    8.0633 C.ar    1  UNL1       -0.0042
@<TRIPOS>BOND
     1    19    20    1
     2    20    21    1
     3    20    14    1
     4    14    15   ar
     5    15    16   ar
     6    16    13    1
     7    13     7    1
     8     7     8    1
     9     7     9   am
    10     9    10    2
    11     9    11   am
    12     6    11    1
    13     6     2    1
    14     2     3    2
    15     2     4   am
    16     4     1    1
    17     1    48    1
    18    48    49    1
    19    49    50   ar
    20    50    51   ar
    21    51    52   ar
    22    52    53   ar
    23    53    54   ar
    24     1    25    1
    25    25    26    1
    26    26    27    1
    27    26    29    1
    28    29    41    1
    29    41    42    1
    30    42    43   ar
    31    43    44   ar
    32    44    45   ar
    33    45    46   ar
    34    46    47   ar
    35    29    30    1
    36    30    31   am
    37    31    32    2
    38    31    34    1
    39    34    35    1
    40    35    36    1
    41    36    37   ar
    42    37    38   ar
    43    38    39   ar
    44    39    40   ar
    45     6    22    1
    46    22    23    1
    47    22    24    1
    48    16    17   ar
    49    17    18   ar
    50    18    14   ar
    51    54    49   ar
    52    47    42   ar
    53    40    36   ar
    54    11    12    1
    55     4     5    1
    56    27    28    1
    57    30    33    1
@<TRIPOS>MOLECULE
*****
 54 57 0 0 0
SMALL
GASTEIGER

@<TRIPOS>ATOM
      1 C          61.8687   87.7075   11.4473 C.3     1  UNL1        0.0784
      2 C          63.3716   86.5145   13.1989 C.2     1  UNL1        0.2403
      3 O          63.9028   87.8434   13.6482 O.2     1  UNL1       -0.2733
      4 N          62.3545   86.4466   12.0985 N.am    1  UNL1       -0.3042
      5 H          62.0058   85.5744   11.8036 H       1  UNL1        0.1494
      6 C          63.8574   85.2536   13.8501 C.3     1  UNL1        0.1496
      7 N          61.9911   81.7725   13.4642 N.am    1  UNL1       -0.2567
      8 C          60.9495   80.9595   14.1743 C.3     1  UNL1        0.1168
      9 C          62.4034   83.1065   14.0122 C.2     1  UNL1        0.3046
     10 O          61.7743   83.6275   15.2703 O.2     1  UNL1       -0.2526
     11 N          63.4450   83.9195   13.3021 N.am    1  UNL1       -0.2824
     12 H          63.8579   83.5776   12.4764 H       1  UNL1        0.1514
     13 C          62.6202   81.2514   12.2061 C.3     1  UNL1        0.1413
     14 C          63.2669   83.9153    9.4583 C.ar    1  UNL1        0.0875
     15 N          62.3314   83.1486   10.3453 N.ar    1  UNL1       -0.2453
     16 C          63.1500   82.2089   11.1803 C.ar    1  UNL1        0.0858
     17 C          64.5914   82.3950   10.8092 C.ar    1  UNL1        0.0530
     18 S          64.6637   83.4495    9.7450 S.2     1  UNL1       -0.0705
     19 C          63.1916   86.4060    8.7230 C.3     1  UNL1        0.0069
     20 C          62.8746   84.9637    8.4598 C.3     1  UNL1        0.0465
     21 C          62.1653   84.5698    7.1982 C.3     1  UNL1        0.0069
     22 C          64.7555   85.3267   15.0493 C.3     1  UNL1        0.0270
     23 C          66.2349   85.1358   14.8911 C.3     1  UNL1        0.0022
     24 C          64.1742   85.5906   16.4066 C.3     1  UNL1        0.0022
     25 C          62.8321   88.8191   11.1534 C.3     1  UNL1        0.0508
     26 C          62.5450   90.2086   11.6401 C.3     1  UNL1        0.1304
     27 O          61.1555   90.5829   12.0634 O.3     1  UNL1       -0.3827
     28 H          60.5689   89.8172   11.9609 H       1  UNL1        0.2104
     29 C          63.6475   91.2237   11.7036 C.3     1  UNL1        0.1059
     30 N          64.4794   91.3508   12.9453 N.am    1  UNL1       -0.2696
     31 C          63.9390   90.8768   14.2619 C.2     1  UNL1        0.4020
     32 O          62.5667   90.2758   14.3368 O.2     1  UNL1       -0.2264
     33 H          65.3800   91.7452   12.8962 H       1  UNL1        0.1528
     34 O          64.7710   91.0039   15.5036 O.3     1  UNL1       -0.4291
     35 C          65.4894   92.2875   15.7968 C.3     1  UNL1        0.2447
     36 C          66.9122   92.4680   15.3575 C.ar    1  UNL1        0.0714
     37 C          67.5040   91.9862   14.0661 C.ar    1  UNL1        0.1053
     38 N          68.9505   92.3824   14.0429 N.ar    1  UNL1       -0.2350
     39 C          69.2528   93.1090   15.3199 C.ar    1  UNL1        0.1343
     40 S          67.9930   93.1619   16.1324 S.2     1  UNL1       -0.0652
     41 C          63.9180   92.1118   10.5255 C.3     1  UNL1        0.0485
     42 C          65.2547   92.7762   10.3784 C.ar    1  UNL1       -0.0204
     43 C          66.4741   91.9521   10.0887 C.ar    1  UNL1       -0.0042
     44 C          67.8109   92.6166    9.9416 C.ar    1  UNL1       -0.0003
     45 C          67.9283   94.1051   10.0842 C.ar    1  UNL1       -0.0000
     46 C          66.7089   94.9293   10.3739 C.ar    1  UNL1       -0.0003
     47 C          65.3722   94.2649   10.5210 C.ar    1  UNL1       -0.0042
     48 C          60.4195   87.8569   11.0900 C.3     1  UNL1        0.0460
     49 C          60.0075   87.9482    9.6505 C.ar    1  UNL1       -0.0205
     50 C          60.0965   89.2589    8.9266 C.ar    1  UNL1       -0.0042
     51 C          59.6845   89.3502    7.4873 C.ar    1  UNL1       -0.0003
     52 C          59.1835   88.1307    6.7718 C.ar    1  UNL1       -0.0000
     53 C          59.0945   86.8200    7.4957 C.ar    1  UNL1       -0.0003
     54 C          59.5065   86.7287    8.9350 C.ar    1  UNL1       -0.0042
@<TRIPOS>BOND
     1    19    20    1
     2    20    21    1
     3    20    14    1
     4    14    15   ar
     5    15    16   ar
     6    16    13    1
     7    13     7    1
     8     7     8    1
     9     7     9   am
    10     9    10    2
    11     9    11   am
    12     6    11    1
    13     6     2    1
    14     2     3    2
    15     2     4   am
    16     4     1    1
    17     1    48    1
    18    48    49    1
    19    49    50   ar
    20    50    51   ar
    21    51    52   ar
    22    52    53   ar
    23    53    54   ar
    24     1    25    1
    25    25    26    1
    26    26    27    1
    27    26    29    1
    28    29    41    1
    29    41    42    1
    30    42    43   ar
    31    43    44   ar
    32    44    45   ar
    33    45    46   ar
    34    46    47   ar
    35    29    30    1
    36    30    31   am
    37    31    32    2
    38    31    34    1
    39    34    35    1
    40    35    36    1
    41    36    37   ar
    42    37    38   ar
    43    38    39   ar
    44    39    40   ar
    45     6    22    1
    46    22    23    1
    47    22    24    1
    48    16    17   ar
    49    17    18   ar
    50    18    14   ar
    51    54    49   ar
    52    47    42   ar
    53    40    36   ar
    54    11    12    1
    55     4     5    1
    56    27    28    1
    57    30    33    1
@<TRIPOS>MOLECULE
*****
 54 57 0 0 0
SMALL
GASTEIGER

@<TRIPOS>ATOM
      1 C          61.9422   89.0273   10.7988 C.3     1  UNL1        0.0784
      2 C          62.1808   86.4781   11.2398 C.2     1  UNL1        0.2403
      3 O          60.7835   86.4415   11.7841 O.2     1  UNL1       -0.2733
      4 N          62.7601   87.7710   10.7471 N.am    1  UNL1       -0.3042
      5 H          63.6772   87.7951   10.3898 H       1  UNL1        0.1494
      6 C          62.9987   85.2218   11.1881 C.3     1  UNL1        0.1496
      7 N          64.0698   84.7399   14.9789 N.am    1  UNL1       -0.2567
      8 C          64.2279   85.5592   16.2255 C.3     1  UNL1        0.1168
      9 C          63.6133   85.3904   13.7068 C.2     1  UNL1        0.3046
     10 O          63.3149   86.8603   13.6811 O.2     1  UNL1       -0.2526
     11 N          63.4552   84.5712   12.4603 N.am    1  UNL1       -0.2824
     12 H          63.6511   83.6065   12.4771 H       1  UNL1        0.1514
     13 C          64.3683   83.2701   15.0046 C.3     1  UNL1        0.1413
     14 C          62.7871   80.7424   12.5194 C.ar    1  UNL1        0.0875
     15 N          63.9450   81.5777   12.9794 N.ar    1  UNL1       -0.2453
     16 C          63.5211   82.3188   14.2126 C.ar    1  UNL1        0.0858
     17 C          62.1011   81.9417   14.5149 C.ar    1  UNL1        0.0530
     18 S          61.6474   80.9674   13.4685 S.2     1  UNL1       -0.0705
     19 C          62.5011   78.3748   11.4888 C.3     1  UNL1        0.0069
     20 C          62.7715   79.8406   11.3209 C.3     1  UNL1        0.0465
     21 C          63.0264   80.4046    9.9546 C.3     1  UNL1        0.0069
     22 C          63.3601   84.6160    9.8643 C.3     1  UNL1        0.0270
     23 C          64.2181   83.3868    9.8112 C.3     1  UNL1        0.0022
     24 C          62.8634   85.2395    8.5937 C.3     1  UNL1        0.0022
     25 C          62.5997   90.3378   11.1157 C.3     1  UNL1        0.0508
     26 C          63.6958   90.3992   12.1379 C.3     1  UNL1        0.1304
     27 O          63.9493   89.2256   13.0370 O.3     1  UNL1       -0.3827
     28 H          63.3216   88.5163   12.8277 H       1  UNL1        0.2104
     29 C          64.5384   91.6340   12.2609 C.3     1  UNL1        0.1059
     30 N          65.3481   91.8689   13.5015 N.am    1  UNL1       -0.2696
     31 C          64.7522   91.5914   14.8498 C.2     1  UNL1        0.4020
     32 O          63.3466   91.0790   14.9575 O.2     1  UNL1       -0.2264
     33 H          66.2707   92.2052   13.4308 H       1  UNL1        0.1528
     34 O          65.5620   91.8263   16.0904 O.3     1  UNL1       -0.4291
     35 C          66.3903   93.0700   16.2211 C.3     1  UNL1        0.2447
     36 C          67.7936   93.0956   15.6919 C.ar    1  UNL1        0.0714
     37 C          68.3267   92.2598   14.5663 C.ar    1  UNL1        0.1053
     38 N          69.7728   92.6091   14.3741 N.ar    1  UNL1       -0.2350
     39 C          70.1333   93.6609   15.3810 C.ar    1  UNL1        0.1343
     40 S          68.9101   93.9615   16.1954 S.2     1  UNL1       -0.0652
     41 C          64.5712   92.6340   11.1433 C.3     1  UNL1        0.0485
     42 C          65.8810   93.0276   10.5274 C.ar    1  UNL1       -0.0204
     43 C          66.1259   94.4541   10.1333 C.ar    1  UNL1       -0.0042
     44 C          67.4358   94.8477    9.5173 C.ar    1  UNL1       -0.0003
     45 C          68.5007   93.8149    9.2954 C.ar    1  UNL1       -0.0000
     46 C          68.2558   92.3884    9.6895 C.ar    1  UNL1       -0.0003
     47 C          66.9460   91.9948   10.3055 C.ar    1  UNL1       -0.0042
     48 C          60.4669   88.9732   10.5336 C.3     1  UNL1        0.0460
     49 C          59.9626   88.5732    9.1786 C.ar    1  UNL1       -0.0205
     50 C          59.8614   89.5943    8.0845 C.ar    1  UNL1       -0.0042
     51 C          59.3572   89.1943    6.7297 C.ar    1  UNL1       -0.0003
     52 C          58.9540   87.7733    6.4689 C.ar    1  UNL1       -0.0000
     53 C          59.0552   86.7522    7.5630 C.ar    1  UNL1       -0.0003
     54 C          59.5594   87.1522    8.9179 C.ar    1  UNL1       -0.0042
@<TRIPOS>BOND
     1    19    20    1
     2    20    21    1
     3    20    14    1
     4    14    15   ar
     5    15    16   ar
     6    16    13    1
     7    13     7    1
     8     7     8    1
     9     7     9   am
    10     9    10    2
    11     9    11   am
    12     6    11    1
    13     6     2    1
    14     2     3    2
    15     2     4   am
    16     4     1    1
    17     1    48    1
    18    48    49    1
    19    49    50   ar
    20    50    51   ar
    21    51    52   ar
    22    52    53   ar
    23    53    54   ar
    24     1    25    1
    25    25    26    1
    26    26    27    1
    27    26    29    1
    28    29    41    1
    29    41    42    1
    30    42    43   ar
    31    43    44   ar
    32    44    45   ar
    33    45    46   ar
    34    46    47   ar
    35    29    30    1
    36    30    31   am
    37    31    32    2
    38    31    34    1
    39    34    35    1
    40    35    36    1
    41    36    37   ar
    42    37    38   ar
    43    38    39   ar
    44    39    40   ar
    45     6    22    1
    46    22    23    1
    47    22    24    1
    48    16    17   ar
    49    17    18   ar
    50    18    14   ar
    51    54    49   ar
    52    47    42   ar
    53    40    36   ar
    54    11    12    1
    55     4     5    1
    56    27    28    1
    57    30    33    1
@<TRIPOS>MOLECULE
*****
 54 57 0 0 0
SMALL
GASTEIGER

@<TRIPOS>ATOM
      1 C          63.5724   85.7411   13.5030 C.3     1  UNL1        0.0784
      2 C          62.3328   86.2332   11.2733 C.2     1  UNL1        0.2403
      3 O          61.1787   86.8060   12.0413 O.2     1  UNL1       -0.2733
      4 N          63.5297   85.7008   12.0041 N.am    1  UNL1       -0.3042
      5 H          64.2872   85.3249   11.5000 H       1  UNL1        0.1494
      6 C          62.2901   86.1928    9.7744 C.3     1  UNL1        0.1496
      7 N          59.5526   88.0749    7.6033 N.am    1  UNL1       -0.2567
      8 C          58.2316   87.7922    6.9511 C.3     1  UNL1        0.1168
      9 C          60.2609   86.9926    8.3628 C.2     1  UNL1        0.3046
     10 O          59.6482   85.6276    8.4702 O.2     1  UNL1       -0.2526
     11 N          61.5818   87.2752    9.0149 N.am    1  UNL1       -0.2824
     12 H          61.9839   88.1711    8.9444 H       1  UNL1        0.1514
     13 C          60.1652   89.4399    7.4959 C.3     1  UNL1        0.1413
     14 C          60.0377   91.6772    4.3267 C.ar    1  UNL1        0.0875
     15 N          60.8006   90.8363    5.3069 N.ar    1  UNL1       -0.2453
     16 C          59.8312   90.3222    6.3297 C.ar    1  UNL1        0.0858
     17 C          58.4692   90.8454    5.9816 C.ar    1  UNL1        0.0530
     18 S          58.5968   91.6828    4.7437 S.2     1  UNL1       -0.0705
     19 C          62.0854   92.3055    2.8562 C.3     1  UNL1        0.0069
     20 C          60.6144   92.3876    3.1381 C.3     1  UNL1        0.0465
     21 C          59.7201   93.1803    2.2315 C.3     1  UNL1        0.0069
     22 C          62.9556   85.0702    9.0351 C.3     1  UNL1        0.0270
     23 C          63.5313   83.9105    9.7927 C.3     1  UNL1        0.0022
     24 C          63.0455   85.1072    7.5383 C.3     1  UNL1        0.0022
     25 C          64.4485   86.7384   14.2017 C.3     1  UNL1        0.0508
     26 C          63.8381   87.7746   15.0981 C.3     1  UNL1        0.1304
     27 O          63.2518   87.3723   16.4190 O.3     1  UNL1       -0.3827
     28 H          63.3489   86.4145   16.5375 H       1  UNL1        0.2104
     29 C          63.8138   89.2131   14.6738 C.3     1  UNL1        0.1059
     30 N          64.9846   90.1025   14.9709 N.am    1  UNL1       -0.2696
     31 C          64.7908   91.3540   15.7747 C.2     1  UNL1        0.4020
     32 O          63.4262   91.7162   16.2814 O.2     1  UNL1       -0.2264
     33 H          65.8802   89.8648   14.6384 H       1  UNL1        0.1528
     34 O          65.9616   92.2434   16.0718 O.3     1  UNL1       -0.4291
     35 C          67.1842   92.1886   15.2045 C.3     1  UNL1        0.2447
     36 C          67.1132   92.6482   13.7784 C.ar    1  UNL1        0.0714
     37 C          67.7688   91.9837   12.6043 C.ar    1  UNL1        0.1053
     38 N          67.4350   92.7778   11.3763 N.ar    1  UNL1       -0.2350
     39 C          66.5731   93.9332   11.7915 C.ar    1  UNL1        0.1343
     40 S          66.3742   93.8531   13.2761 S.2     1  UNL1       -0.0652
     41 C          62.6189   89.7622   13.9523 C.3     1  UNL1        0.0485
     42 C          62.7640   90.2934   12.5570 C.ar    1  UNL1       -0.0204
     43 C          61.7199   89.9856   11.5250 C.ar    1  UNL1       -0.0042
     44 C          61.8650   90.5169   10.1297 C.ar    1  UNL1       -0.0003
     45 C          63.0542   91.3559    9.7665 C.ar    1  UNL1       -0.0000
     46 C          64.0982   91.6638   10.7986 C.ar    1  UNL1       -0.0003
     47 C          63.9531   91.1326   12.1938 C.ar    1  UNL1       -0.0042
     48 C          62.7392   84.7844   14.3030 C.3     1  UNL1        0.0460
     49 C          62.7607   83.3197   13.9801 C.ar    1  UNL1       -0.0205
     50 C          63.9295   82.7303   13.2477 C.ar    1  UNL1       -0.0042
     51 C          63.9510   81.2656   12.9247 C.ar    1  UNL1       -0.0003
     52 C          62.8037   80.3904   13.3342 C.ar    1  UNL1       -0.0000
     53 C          61.6349   80.9798   14.0666 C.ar    1  UNL1       -0.0003
     54 C          61.6134   82.4444   14.3896 C.ar    1  UNL1       -0.0042
@<TRIPOS>BOND
     1    19    20    1
     2    20    21    1
     3    20    14    1
     4    14    15   ar
     5    15    16   ar
     6    16    13    1
     7    13     7    1
     8     7     8    1
     9     7     9   am
    10     9    10    2
    11     9    11   am
    12     6    11    1
    13     6     2    1
    14     2     3    2
    15     2     4   am
    16     4     1    1
    17     1    48    1
    18    48    49    1
    19    49    50   ar
    20    50    51   ar
    21    51    52   ar
    22    52    53   ar
    23    53    54   ar
    24     1    25    1
    25    25    26    1
    26    26    27    1
    27    26    29    1
    28    29    41    1
    29    41    42    1
    30    42    43   ar
    31    43    44   ar
    32    44    45   ar
    33    45    46   ar
    34    46    47   ar
    35    29    30    1
    36    30    31   am
    37    31    32    2
    38    31    34    1
    39    34    35    1
    40    35    36    1
    41    36    37   ar
    42    37    38   ar
    43    38    39   ar
    44    39    40   ar
    45     6    22    1
    46    22    23    1
    47    22    24    1
    48    16    17   ar
    49    17    18   ar
    50    18    14   ar
    51    54    49   ar
    52    47    42   ar
    53    40    36   ar
    54    11    12    1
    55     4     5    1
    56    27    28    1
    57    30    33    1
@<TRIPOS>MOLECULE
*****
 54 57 0 0 0
SMALL
GASTEIGER

@<TRIPOS>ATOM
      1 C          61.8787   88.0834   11.4687 C.3     1  UNL1        0.0784
      2 C          60.4702   88.6192    9.3523 C.2     1  UNL1        0.2403
      3 O          59.7886   89.7344   10.0882 O.2     1  UNL1       -0.2733
      4 N          61.5153   87.7937   10.0425 N.am    1  UNL1       -0.3042
      5 H          61.9627   87.0617    9.5594 H       1  UNL1        0.1494
      6 C          60.1068   88.3295    7.9261 C.3     1  UNL1        0.1496
      7 N          58.9655   91.0614    5.2834 N.am    1  UNL1       -0.2567
      8 C          57.6998   91.6093    4.6936 C.3     1  UNL1        0.1168
      9 C          58.9033   89.9694    6.3098 C.2     1  UNL1        0.3046
     10 O          57.5754   89.4253    6.7466 O.2     1  UNL1       -0.2526
     11 N          60.1690   89.4215    6.8996 N.am    1  UNL1       -0.2824
     12 H          61.0405   89.7786    6.6129 H       1  UNL1        0.1514
     13 C          60.2933   91.6056    4.8466 C.3     1  UNL1        0.1413
     14 C          59.9086   93.3853    1.4188 C.ar    1  UNL1        0.0875
     15 N          59.3203   92.8517    2.6913 N.ar    1  UNL1       -0.2453
     16 C          60.4324   92.2537    3.5011 C.ar    1  UNL1        0.0858
     17 C          61.7080   92.4178    2.7291 C.ar    1  UNL1        0.0530
     18 S          61.3843   93.1171    1.4422 S.2     1  UNL1       -0.0705
     19 C          59.2134   95.5597    0.1784 C.3     1  UNL1        0.0069
     20 C          59.1537   94.0672    0.3165 C.3     1  UNL1        0.0465
     21 C          58.3392   93.2567   -0.6477 C.3     1  UNL1        0.0069
     22 C          59.6813   86.9478    7.5264 C.3     1  UNL1        0.0270
     23 C          60.6831   85.9918    6.9498 C.3     1  UNL1        0.0022
     24 C          58.2539   86.5221    7.7032 C.3     1  UNL1        0.0022
     25 C          61.7304   89.4733   12.0129 C.3     1  UNL1        0.0508
     26 C          62.6798   90.5522   11.5834 C.3     1  UNL1        0.1304
     27 O          62.5428   91.1751   10.2257 O.3     1  UNL1       -0.3827
     28 H          61.7966   90.7690    9.7575 H       1  UNL1        0.2104
     29 C          63.7663   91.0083   12.5116 C.3     1  UNL1        0.1059
     30 N          65.0730   91.4920   11.9563 N.am    1  UNL1       -0.2696
     31 C          65.9543   92.3833   12.7804 C.2     1  UNL1        0.4020
     32 O          65.5288   92.7908   14.1598 O.2     1  UNL1       -0.2264
     33 H          65.3523   91.2246   11.0509 H       1  UNL1        0.1528
     34 O          67.2610   92.8670   12.2250 O.3     1  UNL1       -0.4291
     35 C          67.4325   93.0286   10.7436 C.3     1  UNL1        0.2447
     36 C          67.1881   94.3618   10.1012 C.ar    1  UNL1        0.0714
     37 C          66.5164   95.5396   10.7427 C.ar    1  UNL1        0.1053
     38 N          66.4856   96.6571    9.7426 N.ar    1  UNL1       -0.2350
     39 C          67.1383   96.1699    8.4829 C.ar    1  UNL1        0.1343
     40 S          67.5724   94.7514    8.7046 S.2     1  UNL1       -0.0652
     41 C          63.5461   90.9806   13.9951 C.3     1  UNL1        0.0485
     42 C          63.6399   89.6839   14.7432 C.ar    1  UNL1       -0.0204
     43 C          62.9538   89.5312   16.0683 C.ar    1  UNL1       -0.0042
     44 C          63.0477   88.2344   16.8164 C.ar    1  UNL1       -0.0003
     45 C          63.8276   87.0904   16.2394 C.ar    1  UNL1       -0.0000
     46 C          64.5136   87.2431   14.9142 C.ar    1  UNL1       -0.0003
     47 C          64.4198   88.5398   14.1661 C.ar    1  UNL1       -0.0042
     48 C          62.3905   86.9833   12.3506 C.3     1  UNL1        0.0460
     49 C          62.8808   85.7021   11.7436 C.ar    1  UNL1       -0.0205
     50 C          62.7450   85.4712   10.2677 C.ar    1  UNL1       -0.0042
     51 C          63.2354   84.1902    9.6608 C.ar    1  UNL1       -0.0003
     52 C          63.8615   83.1400   10.5298 C.ar    1  UNL1       -0.0000
     53 C          63.9973   83.3709   12.0056 C.ar    1  UNL1       -0.0003
     54 C          63.5070   84.6519   12.6125 C.ar    1  UNL1       -0.0042
@<TRIPOS>BOND
     1    19    20    1
     2    20    21    1
     3    20    14    1
     4    14    15   ar
     5    15    16   ar
     6    16    13    1
     7    13     7    1
     8     7     8    1
     9     7     9   am
    10     9    10    2
    11     9    11   am
    12     6    11    1
    13     6     2    1
    14     2     3    2
    15     2     4   am
    16     4     1    1
    17     1    48    1
    18    48    49    1
    19    49    50   ar
    20    50    51   ar
    21    51    52   ar
    22    52    53   ar
    23    53    54   ar
    24     1    25    1
    25    25    26    1
    26    26    27    1
    27    26    29    1
    28    29    41    1
    29    41    42    1
    30    42    43   ar
    31    43    44   ar
    32    44    45   ar
    33    45    46   ar
    34    46    47   ar
    35    29    30    1
    36    30    31   am
    37    31    32    2
    38    31    34    1
    39    34    35    1
    40    35    36    1
    41    36    37   ar
    42    37    38   ar
    43    38    39   ar
    44    39    40   ar
    45     6    22    1
    46    22    23    1
    47    22    24    1
    48    16    17   ar
    49    17    18   ar
    50    18    14   ar
    51    54    49   ar
    52    47    42   ar
    53    40    36   ar
    54    11    12    1
    55     4     5    1
    56    27    28    1
    57    30    33    1
