@<TRIPOS>MOLECULE
*****
 41 46 0 0 0
SMALL
GASTEIGER

@<TRIPOS>ATOM
      1 C          63.3038   85.8805   13.2057 C.ar    1  UNL1        0.1515
      2 N          64.2487   86.4419   14.2266 N.ar    1  UNL1       -0.2248
      3 C          64.4070   87.9085   13.9547 C.ar    1  UNL1        0.1173
      4 C          65.2130   88.9743   14.6361 C.ar    1  UNL1        0.0238
      5 C          65.1720   90.3853   14.1286 C.ar    1  UNL1        0.0223
      6 C          64.3250   90.7304   12.9398 C.ar    1  UNL1        0.1006
      7 N          63.5190   89.6646   12.2583 N.ar    1  UNL1       -0.2248
      8 C          63.5600   88.2536   12.7658 C.ar    1  UNL1        0.1666
      9 N          62.8782   87.0003   12.3029 N.ar    1  UNL1       -0.2754
     10 N          62.0186   84.5386   15.5611 N.pl3   1  UNL1       -0.3425
     11 C          62.2196   83.7796   14.2829 C.ar    1  UNL1        0.1282
     12 N          61.7779   82.3496   14.1825 N.ar    1  UNL1       -0.2295
     13 C          61.9788   81.5906   12.9044 C.ar    1  UNL1        0.1003
     14 C          62.6214   82.2615   11.7268 C.ar    1  UNL1        0.0209
     15 C          63.0631   83.6915   11.8272 C.ar    1  UNL1        0.0074
     16 C          62.8622   84.4506   13.1053 C.ar    1  UNL1        0.0657
     17 H          61.5969   84.0982   16.3340 H       1  UNL1        0.1437
     18 H          62.3085   85.4772   15.6270 H       1  UNL1        0.1437
     19 C          65.9780   91.4512   14.8101 C.ar    1  UNL1        0.0207
     20 C          67.3284   91.8269   14.2760 C.ar    1  UNL1        0.0032
     21 C          68.1344   92.8927   14.9573 C.ar    1  UNL1        0.0207
     22 C          67.5900   93.5829   16.1728 C.ar    1  UNL1        0.0989
     23 N          66.2396   93.2072   16.7069 N.ar    1  UNL1       -0.2423
     24 C          65.4336   92.1413   16.0255 C.ar    1  UNL1        0.0989
     25 C          61.9362   86.8866   11.1412 C.ar    1  UNL1        0.0667
     26 C          62.3897   86.2347    9.8687 C.ar    1  UNL1        0.0173
     27 C          61.4477   86.1211    8.7070 C.ar    1  UNL1       -0.0011
     28 C          60.0520   86.6594    8.8177 C.ar    1  UNL1       -0.0025
     29 C          59.5983   87.3113   10.0902 C.ar    1  UNL1       -0.0011
     30 C          60.5404   87.4249   11.2519 C.ar    1  UNL1        0.0173
     31 C          59.1099   86.5457    7.6560 C.3     1  UNL1        0.1166
     32 N          59.0433   87.6420    6.6344 N.am    1  UNL1       -0.2969
     33 C          59.3699   89.0528    7.0259 C.2     1  UNL1        0.2461
     34 O          59.7631   89.3671    8.4388 O.2     1  UNL1       -0.2701
     35 H          58.7851   87.4357    5.7070 H       1  UNL1        0.1501
     36 C          59.3032   90.1491    6.0043 C.ar    1  UNL1        0.0534
     37 C          60.5591   90.6373    5.3450 C.ar    1  UNL1        0.0045
     38 C          60.4924   91.7336    4.3234 C.ar    1  UNL1        0.0001
     39 C          59.1699   92.3417    3.9611 C.ar    1  UNL1        0.0000
     40 C          57.9141   91.8536    4.6204 C.ar    1  UNL1        0.0001
     41 C          57.9808   90.7572    5.6420 C.ar    1  UNL1        0.0045
@<TRIPOS>BOND
     1    10    11    1
     2    11    12   ar
     3    12    13   ar
     4    13    14   ar
     5    14    15   ar
     6    15    16   ar
     7    16     1    1
     8     1     2   ar
     9     2     3   ar
    10     3     4   ar
    11     4     5   ar
    12     5    19    1
    13    19    20   ar
    14    20    21   ar
    15    21    22   ar
    16    22    23   ar
    17    23    24   ar
    18     5     6   ar
    19     6     7   ar
    20     7     8   ar
    21     8     9   ar
    22     9    25    1
    23    25    26   ar
    24    26    27   ar
    25    27    28   ar
    26    28    31    1
    27    31    32    1
    28    32    33   am
    29    33    34    2
    30    33    36    1
    31    36    37   ar
    32    37    38   ar
    33    38    39   ar
    34    39    40   ar
    35    40    41   ar
    36    28    29   ar
    37    29    30   ar
    38    16    11   ar
    39     9     1   ar
    40    30    25   ar
    41     8     3   ar
    42    41    36   ar
    43    24    19   ar
    44    10    17    1
    45    10    18    1
    46    32    35    1
