@<TRIPOS>MOLECULE
*****
 27 30 0 0 0
SMALL
GASTEIGER

@<TRIPOS>ATOM
      1 C          63.2176   84.3688   13.9663 C.2     1  UNL1       -0.0137
      2 C          63.8666   84.6758   15.2833 C.2     1  UNL1        0.0001
      3 C          64.3234   86.0719   15.5869 C.2     1  UNL1        0.0498
      4 C          64.1311   87.1610   14.5736 C.2     1  UNL1        0.2321
      5 N          64.4770   88.6206   14.5909 N.2     1  UNL1       -0.0308
      6 C          64.0416   89.2155   13.2846 C.2     1  UNL1        0.3751
      7 N          63.4268   88.1238   12.4599 N.2     1  UNL1       -0.0347
      8 C          63.4821   86.8540   13.2566 C.2     1  UNL1        0.2178
      9 C          63.0253   85.4579   12.9530 C.3     1  UNL1        0.1040
     10 C          63.2395   82.2803   12.4211 C.ar    1  UNL1        0.0711
     11 C          62.7827   80.8842   12.1174 C.ar    1  UNL1        0.0038
     12 C          61.8472   80.1804   13.0552 C.ar    1  UNL1       -0.0001
     13 C          61.3684   80.8728   14.2968 C.ar    1  UNL1       -0.0000
     14 C          61.8252   82.2690   14.6005 C.ar    1  UNL1       -0.0004
     15 C          62.7607   82.9727   13.6626 C.ar    1  UNL1        0.0004
     16 F          65.1106   83.6878   10.5455 F       1  UNL1       -0.1659
     17 C          64.1750   82.9841   11.4832 C.3     1  UNL1        0.4186
     18 F          65.3357   82.5984   12.3516 F       1  UNL1       -0.1659
     19 F          63.0144   83.3698   10.6148 F       1  UNL1       -0.1659
     20 C          64.1944   90.6504   12.8748 C.2     1  UNL1        0.0913
     21 C          65.5622   91.2278   12.6610 C.2     1  UNL1       -0.0185
     22 C          65.7149   92.6626   12.2512 C.3     1  UNL1        0.0223
     23 C          65.3140   93.0955   10.8721 C.3     1  UNL1        0.0043
     24 C          65.4668   94.5303   10.4623 C.3     1  UNL1        0.0003
     25 C          66.0205   95.5323   11.4317 C.3     1  UNL1        0.0000
     26 C          66.4214   95.0994   12.8107 C.3     1  UNL1        0.0003
     27 C          66.2686   93.6645   13.2205 C.3     1  UNL1        0.0043
@<TRIPOS>BOND
     1    16    17    1
     2    17    18    1
     3    17    19    1
     4    17    10    1
     5    10    11   ar
     6    11    12   ar
     7    12    13   ar
     8    13    14   ar
     9    14    15   ar
    10    15     1    1
    11     1     2    2
    12     2     3    1
    13     3     4    2
    14     4     5    1
    15     5     6    2
    16     6    20    1
    17    20    21    2
    18    21    22    1
    19    22    23    1
    20    23    24    1
    21    24    25    1
    22    25    26    1
    23    26    27    1
    24     6     7    1
    25     7     8    2
    26     8     9    1
    27    15    10   ar
    28     9     1    1
    29     8     4    1
    30    27    22    1
@<TRIPOS>MOLECULE
*****
 27 30 0 0 0
SMALL
GASTEIGER

@<TRIPOS>ATOM
      1 C          62.5127   84.6458   12.2785 C.2     1  UNL1       -0.0137
      2 C          63.2672   85.7404   12.9731 C.2     1  UNL1        0.0001
      3 C          63.1656   87.1525   12.4776 C.2     1  UNL1        0.0498
      4 C          62.3095   87.4700   11.2875 C.2     1  UNL1        0.2321
      5 N          62.0168   88.7581   10.5766 N.2     1  UNL1       -0.0308
      6 C          61.0815   88.4594    9.4426 C.2     1  UNL1        0.3751
      7 N          60.7961   86.9868    9.4527 N.2     1  UNL1       -0.0347
      8 C          61.5551   86.3754   10.5929 C.2     1  UNL1        0.2178
      9 C          61.6567   84.9633   11.0884 C.3     1  UNL1        0.1040
     10 C          63.4004   82.2205   11.9959 C.ar    1  UNL1        0.0711
     11 C          63.5020   80.8083   12.4913 C.ar    1  UNL1        0.0038
     12 C          62.8175   80.4093   13.7650 C.ar    1  UNL1       -0.0001
     13 C          62.0314   81.4224   14.5433 C.ar    1  UNL1       -0.0000
     14 C          61.9299   82.8346   14.0477 C.ar    1  UNL1       -0.0004
     15 C          62.6143   83.2336   12.7741 C.ar    1  UNL1        0.0004
     16 F          64.7693   83.0185    9.4484 F       1  UNL1       -0.1659
     17 C          64.0849   82.6195   10.7221 C.3     1  UNL1        0.4186
     18 F          63.1152   81.7846    9.9395 F       1  UNL1       -0.1659
     19 F          65.0546   83.4544   11.5047 F       1  UNL1       -0.1659
     20 C          60.5286   89.4580    8.4694 C.2     1  UNL1        0.0913
     21 C          59.8341   88.9879    7.2256 C.2     1  UNL1       -0.0185
     22 C          59.2812   89.9864    6.2524 C.3     1  UNL1        0.0223
     23 C          57.7972   90.1370    6.0941 C.3     1  UNL1        0.0043
     24 C          57.2443   91.1355    5.1209 C.3     1  UNL1        0.0003
     25 C          58.1754   91.9835    4.3059 C.3     1  UNL1        0.0000
     26 C          59.6594   91.8329    4.4642 C.3     1  UNL1        0.0003
     27 C          60.2123   90.8343    5.4375 C.3     1  UNL1        0.0043
@<TRIPOS>BOND
     1    16    17    1
     2    17    18    1
     3    17    19    1
     4    17    10    1
     5    10    11   ar
     6    11    12   ar
     7    12    13   ar
     8    13    14   ar
     9    14    15   ar
    10    15     1    1
    11     1     2    2
    12     2     3    1
    13     3     4    2
    14     4     5    1
    15     5     6    2
    16     6    20    1
    17    20    21    2
    18    21    22    1
    19    22    23    1
    20    23    24    1
    21    24    25    1
    22    25    26    1
    23    26    27    1
    24     6     7    1
    25     7     8    2
    26     8     9    1
    27    15    10   ar
    28     9     1    1
    29     8     4    1
    30    27    22    1
@<TRIPOS>MOLECULE
*****
 27 30 0 0 0
SMALL
GASTEIGER

@<TRIPOS>ATOM
      1 C          62.6024   84.9143   12.1522 C.2     1  UNL1       -0.0137
      2 C          63.3277   86.0451   12.8193 C.2     1  UNL1        0.0001
      3 C          63.1386   87.4502   12.3293 C.2     1  UNL1        0.0498
      4 C          62.2242   87.7243   11.1723 C.2     1  UNL1        0.2321
      5 N          61.8424   88.9959   10.4741 N.2     1  UNL1       -0.0308
      6 C          60.8812   88.6509    9.3755 C.2     1  UNL1        0.3751
      7 N          60.6689   87.1661    9.3947 N.2     1  UNL1       -0.0347
      8 C          61.4989   86.5935   10.5052 C.2     1  UNL1        0.2178
      9 C          61.6880   85.1884   10.9952 C.3     1  UNL1        0.1040
     10 C          62.9945   83.2459   14.1048 C.ar    1  UNL1        0.0711
     11 C          63.1835   81.8408   14.5948 C.ar    1  UNL1        0.0038
     12 C          63.1695   80.6990   13.6221 C.ar    1  UNL1       -0.0001
     13 C          62.9665   80.9623   12.1594 C.ar    1  UNL1       -0.0000
     14 C          62.7774   82.3674   11.6695 C.ar    1  UNL1       -0.0004
     15 C          62.7914   83.5092   12.6422 C.ar    1  UNL1        0.0004
     16 F          63.0224   85.5294   16.0503 F       1  UNL1       -0.1659
     17 C          63.0085   84.3877   15.0776 C.3     1  UNL1        0.4186
     18 F          61.5088   84.4162   15.0656 F       1  UNL1       -0.1659
     19 F          64.5081   84.3592   15.0895 F       1  UNL1       -0.1659
     20 C          60.2441   89.6204    8.4245 C.2     1  UNL1        0.0913
     21 C          59.8787   89.1805    7.0378 C.2     1  UNL1       -0.0185
     22 C          59.2416   90.1499    6.0869 C.3     1  UNL1        0.0223
     23 C          60.0989   91.0438    5.2408 C.3     1  UNL1        0.0043
     24 C          59.4618   92.0132    4.2899 C.3     1  UNL1        0.0003
     25 C          57.9674   92.0888    4.1850 C.3     1  UNL1        0.0000
     26 C          57.1100   91.1949    5.0312 C.3     1  UNL1        0.0003
     27 C          57.7472   90.2254    5.9821 C.3     1  UNL1        0.0043
@<TRIPOS>BOND
     1    16    17    1
     2    17    18    1
     3    17    19    1
     4    17    10    1
     5    10    11   ar
     6    11    12   ar
     7    12    13   ar
     8    13    14   ar
     9    14    15   ar
    10    15     1    1
    11     1     2    2
    12     2     3    1
    13     3     4    2
    14     4     5    1
    15     5     6    2
    16     6    20    1
    17    20    21    2
    18    21    22    1
    19    22    23    1
    20    23    24    1
    21    24    25    1
    22    25    26    1
    23    26    27    1
    24     6     7    1
    25     7     8    2
    26     8     9    1
    27    15    10   ar
    28     9     1    1
    29     8     4    1
    30    27    22    1
@<TRIPOS>MOLECULE
*****
 27 30 0 0 0
SMALL
GASTEIGER

@<TRIPOS>ATOM
      1 C          64.8571   90.7658   13.6217 C.2     1  UNL1       -0.0137
      2 C          63.9570   91.1348   12.4799 C.2     1  UNL1        0.0001
      3 C          63.1032   90.0871   11.8292 C.2     1  UNL1        0.0498
      4 C          63.1494   88.6706   12.3203 C.2     1  UNL1        0.2321
      5 N          62.4278   87.4315   11.8797 N.2     1  UNL1       -0.0308
      6 C          62.8819   86.2968   12.7493 C.2     1  UNL1        0.3751
      7 N          63.8842   86.8345   13.7272 N.2     1  UNL1       -0.0347
      8 C          64.0495   88.3016   13.4621 C.2     1  UNL1        0.2178
      9 C          64.9033   89.3492   14.1128 C.3     1  UNL1        0.1040
     10 C          66.5297   92.7444   13.4281 C.ar    1  UNL1        0.0711
     11 C          67.3835   93.7920   14.0788 C.ar    1  UNL1        0.0038
     12 C          67.4187   93.9087   15.5739 C.ar    1  UNL1       -0.0001
     13 C          66.5999   92.9777   16.4183 C.ar    1  UNL1       -0.0000
     14 C          65.7460   91.9300   15.7675 C.ar    1  UNL1       -0.0004
     15 C          65.7109   91.8134   14.2725 C.ar    1  UNL1        0.0004
     16 F          66.4595   92.5111   10.4380 F       1  UNL1       -0.1659
     17 C          66.4946   92.6278   11.9330 C.3     1  UNL1        0.4186
     18 F          67.6065   91.6225   11.9854 F       1  UNL1       -0.1659
     19 F          65.3826   93.6331   11.8807 F       1  UNL1       -0.1659
     20 C          62.4156   84.8740   12.6571 C.2     1  UNL1        0.0913
     21 C          63.1527   83.7941   13.3924 C.2     1  UNL1       -0.0185
     22 C          62.6865   82.3714   13.3003 C.3     1  UNL1        0.0223
     23 C          63.2467   81.4655   12.2442 C.3     1  UNL1        0.0043
     24 C          62.7805   80.0428   12.1521 C.3     1  UNL1        0.0003
     25 C          61.7540   79.5260   13.1161 C.3     1  UNL1        0.0000
     26 C          61.1938   80.4319   14.1723 C.3     1  UNL1        0.0003
     27 C          61.6600   81.8547   14.2643 C.3     1  UNL1        0.0043
@<TRIPOS>BOND
     1    16    17    1
     2    17    18    1
     3    17    19    1
     4    17    10    1
     5    10    11   ar
     6    11    12   ar
     7    12    13   ar
     8    13    14   ar
     9    14    15   ar
    10    15     1    1
    11     1     2    2
    12     2     3    1
    13     3     4    2
    14     4     5    1
    15     5     6    2
    16     6    20    1
    17    20    21    2
    18    21    22    1
    19    22    23    1
    20    23    24    1
    21    24    25    1
    22    25    26    1
    23    26    27    1
    24     6     7    1
    25     7     8    2
    26     8     9    1
    27    15    10   ar
    28     9     1    1
    29     8     4    1
    30    27    22    1
@<TRIPOS>MOLECULE
*****
 27 30 0 0 0
SMALL
GASTEIGER

@<TRIPOS>ATOM
      1 C          65.9182   93.6310   11.7182 C.2     1  UNL1       -0.0137
      2 C          66.5379   93.9139   13.0545 C.2     1  UNL1        0.0001
      3 C          66.3782   92.9329   14.1780 C.2     1  UNL1        0.0498
      4 C          65.5988   91.6691   13.9650 C.2     1  UNL1        0.2321
      5 N          65.2746   90.5239   14.8781 N.2     1  UNL1       -0.0308
      6 C          64.4546   89.5333   14.1059 C.2     1  UNL1        0.3751
      7 N          64.2719   90.0663   12.7157 N.2     1  UNL1       -0.0347
      8 C          64.9791   91.3863   12.6287 C.2     1  UNL1        0.2178
      9 C          65.1388   92.3672   11.5052 C.3     1  UNL1        0.1040
     10 C          67.0486   94.3312    9.4861 C.ar    1  UNL1        0.0711
     11 C          67.2083   95.3121    8.3626 C.ar    1  UNL1        0.0038
     12 C          66.3973   96.5739    8.3476 C.ar    1  UNL1       -0.0001
     13 C          65.4267   96.8548    9.4562 C.ar    1  UNL1       -0.0000
     14 C          65.2670   95.8738   10.5797 C.ar    1  UNL1       -0.0004
     15 C          66.0779   94.6120   10.5946 C.ar    1  UNL1        0.0004
     16 F          68.6704   91.8075    9.5160 F       1  UNL1       -0.1659
     17 C          67.8595   93.0693    9.5010 C.3     1  UNL1        0.4186
     18 F          66.6030   92.2603    9.3724 F       1  UNL1       -0.1659
     19 F          69.1161   93.8783    9.6297 F       1  UNL1       -0.1659
     20 C          63.9123   88.2373   14.6316 C.2     1  UNL1        0.0913
     21 C          64.1430   86.9646   13.8719 C.2     1  UNL1       -0.0185
     22 C          63.6008   85.6686   14.3975 C.3     1  UNL1        0.0223
     23 C          63.2983   84.5438   13.4523 C.3     1  UNL1        0.0043
     24 C          62.7561   83.2478   13.9779 C.3     1  UNL1        0.0003
     25 C          62.5164   83.0765   15.4488 C.3     1  UNL1        0.0000
     26 C          62.8189   84.2013   16.3939 C.3     1  UNL1        0.0003
     27 C          63.3611   85.4974   15.8682 C.3     1  UNL1        0.0043
@<TRIPOS>BOND
     1    16    17    1
     2    17    18    1
     3    17    19    1
     4    17    10    1
     5    10    11   ar
     6    11    12   ar
     7    12    13   ar
     8    13    14   ar
     9    14    15   ar
    10    15     1    1
    11     1     2    2
    12     2     3    1
    13     3     4    2
    14     4     5    1
    15     5     6    2
    16     6    20    1
    17    20    21    2
    18    21    22    1
    19    22    23    1
    20    23    24    1
    21    24    25    1
    22    25    26    1
    23    26    27    1
    24     6     7    1
    25     7     8    2
    26     8     9    1
    27    15    10   ar
    28     9     1    1
    29     8     4    1
    30    27    22    1
@<TRIPOS>MOLECULE
*****
 27 30 0 0 0
SMALL
GASTEIGER

@<TRIPOS>ATOM
      1 C          64.0473   91.2144   11.4464 C.2     1  UNL1       -0.0137
      2 C          63.0463   91.2195   10.3294 C.2     1  UNL1        0.0001
      3 C          62.2324   89.9918   10.0460 C.2     1  UNL1        0.0498
      4 C          62.4195   88.7590   10.8798 C.2     1  UNL1        0.2321
      5 N          61.7660   87.4095   10.8368 N.2     1  UNL1       -0.0308
      6 C          62.3632   86.5703   11.9272 C.2     1  UNL1        0.3751
      7 N          63.3858   87.4012   12.6442 N.2     1  UNL1       -0.0347
      8 C          63.4206   88.7539   11.9968 C.2     1  UNL1        0.2178
      9 C          64.2345   89.9816   12.2801 C.3     1  UNL1        0.1040
     10 C          65.5050   92.6217   13.0727 C.ar    1  UNL1        0.0711
     11 C          66.3189   93.8494   13.3561 C.ar    1  UNL1        0.0038
     12 C          66.4891   94.8975   12.2966 C.ar    1  UNL1       -0.0001
     13 C          65.8453   94.7180   10.9537 C.ar    1  UNL1       -0.0000
     14 C          65.0314   93.4902   10.6703 C.ar    1  UNL1       -0.0004
     15 C          64.8612   92.4421   11.7298 C.ar    1  UNL1        0.0004
     16 F          65.1648   90.5254   15.1916 F       1  UNL1       -0.1659
     17 C          65.3349   91.5735   14.1321 C.3     1  UNL1        0.4186
     18 F          66.7569   91.1403   13.9318 F       1  UNL1       -0.1659
     19 F          63.9129   92.0068   14.3325 F       1  UNL1       -0.1659
     20 C          62.0014   85.1497   12.2451 C.2     1  UNL1        0.0913
     21 C          63.0780   84.1142   12.3821 C.2     1  UNL1       -0.0185
     22 C          62.7162   82.6937   12.6999 C.3     1  UNL1        0.0223
     23 C          62.0053   82.3692   13.9803 C.3     1  UNL1        0.0043
     24 C          61.6436   80.9486   14.2981 C.3     1  UNL1        0.0003
     25 C          61.9927   79.8524   13.3354 C.3     1  UNL1        0.0000
     26 C          62.7035   80.1769   12.0550 C.3     1  UNL1        0.0003
     27 C          63.0653   81.5976   11.7373 C.3     1  UNL1        0.0043
@<TRIPOS>BOND
     1    16    17    1
     2    17    18    1
     3    17    19    1
     4    17    10    1
     5    10    11   ar
     6    11    12   ar
     7    12    13   ar
     8    13    14   ar
     9    14    15   ar
    10    15     1    1
    11     1     2    2
    12     2     3    1
    13     3     4    2
    14     4     5    1
    15     5     6    2
    16     6    20    1
    17    20    21    2
    18    21    22    1
    19    22    23    1
    20    23    24    1
    21    24    25    1
    22    25    26    1
    23    26    27    1
    24     6     7    1
    25     7     8    2
    26     8     9    1
    27    15    10   ar
    28     9     1    1
    29     8     4    1
    30    27    22    1
@<TRIPOS>MOLECULE
*****
 27 30 0 0 0
SMALL
GASTEIGER

@<TRIPOS>ATOM
      1 C          64.7609   90.5422   14.9953 C.2     1  UNL1       -0.0137
      2 C          63.9014   90.5769   16.2241 C.2     1  UNL1        0.0001
      3 C          63.2187   89.3279   16.6973 C.2     1  UNL1        0.0498
      4 C          63.3956   88.0442   15.9417 C.2     1  UNL1        0.2321
      5 N          62.8522   86.6642   16.1664 N.2     1  UNL1       -0.0308
      6 C          63.3760   85.7767   15.0765 C.2     1  UNL1        0.3751
      7 N          64.2430   86.6082   14.1781 N.2     1  UNL1       -0.0347
      8 C          64.2551   88.0095   14.7129 C.2     1  UNL1        0.2178
      9 C          64.9378   89.2585   14.2397 C.3     1  UNL1        0.1040
     10 C          65.2039   92.2954   13.1298 C.ar    1  UNL1        0.0711
     11 C          65.8866   93.5444   12.6565 C.ar    1  UNL1        0.0038
     12 C          66.8089   94.2893   13.5755 C.ar    1  UNL1       -0.0001
     13 C          67.0486   93.7851   14.9678 C.ar    1  UNL1       -0.0000
     14 C          66.3659   92.5360   15.4411 C.ar    1  UNL1       -0.0004
     15 C          65.4436   91.7912   14.5221 C.ar    1  UNL1        0.0004
     16 F          63.3593   90.8057   11.2919 F       1  UNL1       -0.1659
     17 C          64.2816   91.5505   12.2108 C.3     1  UNL1        0.4186
     18 F          63.2140   91.5729   13.2642 F       1  UNL1       -0.1659
     19 F          65.3491   91.5282   11.1574 F       1  UNL1       -0.1659
     20 C          63.0839   84.3144   14.9134 C.2     1  UNL1        0.0913
     21 C          62.8248   83.7490   13.5484 C.2     1  UNL1       -0.0185
     22 C          62.5328   82.2868   13.3853 C.3     1  UNL1        0.0223
     23 C          61.6467   81.5845   14.3709 C.3     1  UNL1        0.0043
     24 C          61.3547   80.1223   14.2078 C.3     1  UNL1        0.0003
     25 C          61.9488   79.3624   13.0590 C.3     1  UNL1        0.0000
     26 C          62.8349   80.0647   12.0734 C.3     1  UNL1        0.0003
     27 C          63.1269   81.5270   12.2366 C.3     1  UNL1        0.0043
@<TRIPOS>BOND
     1    16    17    1
     2    17    18    1
     3    17    19    1
     4    17    10    1
     5    10    11   ar
     6    11    12   ar
     7    12    13   ar
     8    13    14   ar
     9    14    15   ar
    10    15     1    1
    11     1     2    2
    12     2     3    1
    13     3     4    2
    14     4     5    1
    15     5     6    2
    16     6    20    1
    17    20    21    2
    18    21    22    1
    19    22    23    1
    20    23    24    1
    21    24    25    1
    22    25    26    1
    23    26    27    1
    24     6     7    1
    25     7     8    2
    26     8     9    1
    27    15    10   ar
    28     9     1    1
    29     8     4    1
    30    27    22    1
@<TRIPOS>MOLECULE
*****
 27 30 0 0 0
SMALL
GASTEIGER

@<TRIPOS>ATOM
      1 C          64.6919   90.7484   14.3658 C.2     1  UNL1       -0.0137
      2 C          64.1233   90.8903   15.7465 C.2     1  UNL1        0.0001
      3 C          63.5675   89.6911   16.4557 C.2     1  UNL1        0.0498
      4 C          63.5803   88.3499   15.7841 C.2     1  UNL1        0.2321
      5 N          63.1064   86.9988   16.2315 N.2     1  UNL1       -0.0308
      6 C          63.3822   86.0219   15.1272 C.2     1  UNL1        0.3751
      7 N          64.0265   86.7691   13.9974 N.2     1  UNL1       -0.0347
      8 C          64.1490   88.2079   14.4034 C.2     1  UNL1        0.2178
      9 C          64.7047   89.4072   13.6942 C.3     1  UNL1        0.1040
     10 C          66.3093   92.7809   14.3113 C.ar    1  UNL1        0.0711
     11 C          66.8651   93.9801   13.6022 C.ar    1  UNL1        0.0038
     12 C          66.3594   94.3461   12.2382 C.ar    1  UNL1       -0.0001
     13 C          65.2978   93.5128   11.5835 C.ar    1  UNL1       -0.0000
     14 C          64.7420   92.3135   12.2927 C.ar    1  UNL1       -0.0004
     15 C          65.2477   91.9476   13.6566 C.ar    1  UNL1        0.0004
     16 F          67.3207   92.0490   17.0392 F       1  UNL1       -0.1659
     17 C          66.8151   92.4149   15.6753 C.3     1  UNL1        0.4186
     18 F          65.7215   93.2301   16.2995 F       1  UNL1       -0.1659
     19 F          67.9086   91.5998   15.0512 F       1  UNL1       -0.1659
     20 C          63.0688   84.5551   15.1489 C.2     1  UNL1        0.0913
     21 C          62.8803   83.8093   13.8611 C.2     1  UNL1       -0.0185
     22 C          62.5669   82.3427   13.8827 C.3     1  UNL1        0.0223
     23 C          63.6335   81.3427   13.5472 C.3     1  UNL1        0.0043
     24 C          63.3200   79.8760   13.5688 C.3     1  UNL1        0.0003
     25 C          61.9399   79.4092   13.9260 C.3     1  UNL1        0.0000
     26 C          60.8733   80.4091   14.2616 C.3     1  UNL1        0.0003
     27 C          61.1869   81.8759   14.2399 C.3     1  UNL1        0.0043
@<TRIPOS>BOND
     1    16    17    1
     2    17    18    1
     3    17    19    1
     4    17    10    1
     5    10    11   ar
     6    11    12   ar
     7    12    13   ar
     8    13    14   ar
     9    14    15   ar
    10    15     1    1
    11     1     2    2
    12     2     3    1
    13     3     4    2
    14     4     5    1
    15     5     6    2
    16     6    20    1
    17    20    21    2
    18    21    22    1
    19    22    23    1
    20    23    24    1
    21    24    25    1
    22    25    26    1
    23    26    27    1
    24     6     7    1
    25     7     8    2
    26     8     9    1
    27    15    10   ar
    28     9     1    1
    29     8     4    1
    30    27    22    1
@<TRIPOS>MOLECULE
*****
 27 30 0 0 0
SMALL
GASTEIGER

@<TRIPOS>ATOM
      1 C          62.9570   83.5010   14.0396 C.2     1  UNL1       -0.0137
      2 C          62.4932   83.5937   15.4631 C.2     1  UNL1        0.0001
      3 C          62.6291   84.8853   16.2135 C.2     1  UNL1        0.0498
      4 C          63.2287   86.0843   15.5405 C.2     1  UNL1        0.2321
      5 N          63.4892   87.4805   16.0230 N.2     1  UNL1       -0.0308
      6 C          64.1140   88.2507   14.8977 C.2     1  UNL1        0.3751
      7 N          64.2397   87.3305   13.7197 N.2     1  UNL1       -0.0347
      8 C          63.6925   85.9916   14.1170 C.2     1  UNL1        0.2178
      9 C          63.5567   84.7000   13.3666 C.3     1  UNL1        0.1040
     10 C          63.0349   82.1784   11.8047 C.ar    1  UNL1        0.0711
     11 C          62.8991   80.8868   11.0542 C.ar    1  UNL1        0.0038
     12 C          62.5496   79.6261   11.7880 C.ar    1  UNL1       -0.0001
     13 C          62.3360   79.6570   13.2724 C.ar    1  UNL1       -0.0000
     14 C          62.4718   80.9487   14.0230 C.ar    1  UNL1       -0.0004
     15 C          62.8212   82.2093   13.2891 C.ar    1  UNL1        0.0004
     16 F          63.7338   84.6998   10.3370 F       1  UNL1       -0.1659
     17 C          63.3844   83.4391   11.0708 C.3     1  UNL1        0.4186
     18 F          61.9432   83.8542   11.0977 F       1  UNL1       -0.1659
     19 F          64.8255   83.0241   11.0440 F       1  UNL1       -0.1659
     20 C          64.5387   89.6887   14.9424 C.2     1  UNL1        0.0913
     21 C          65.6800   90.1605   14.0910 C.2     1  UNL1       -0.0185
     22 C          66.1046   91.5984   14.1356 C.3     1  UNL1        0.0223
     23 C          66.8510   92.1234   15.3261 C.3     1  UNL1        0.0043
     24 C          67.2756   93.5613   15.3708 C.3     1  UNL1        0.0003
     25 C          66.9539   94.4743   14.2249 C.3     1  UNL1        0.0000
     26 C          66.2076   93.9493   13.0344 C.3     1  UNL1        0.0003
     27 C          65.7829   92.5113   12.9898 C.3     1  UNL1        0.0043
@<TRIPOS>BOND
     1    16    17    1
     2    17    18    1
     3    17    19    1
     4    17    10    1
     5    10    11   ar
     6    11    12   ar
     7    12    13   ar
     8    13    14   ar
     9    14    15   ar
    10    15     1    1
    11     1     2    2
    12     2     3    1
    13     3     4    2
    14     4     5    1
    15     5     6    2
    16     6    20    1
    17    20    21    2
    18    21    22    1
    19    22    23    1
    20    23    24    1
    21    24    25    1
    22    25    26    1
    23    26    27    1
    24     6     7    1
    25     7     8    2
    26     8     9    1
    27    15    10   ar
    28     9     1    1
    29     8     4    1
    30    27    22    1
