@<TRIPOS>MOLECULE
*****
 18 19 0 0 0
SMALL
GASTEIGER

@<TRIPOS>ATOM
      1 C          64.5765   90.8105   13.2733 C.3     1  UNL1        0.0294
      2 C          64.6615   91.8295   12.1758 C.3     1  UNL1        0.0025
      3 C          64.0155   91.8023   10.8224 C.3     1  UNL1        0.0004
      4 C          63.1249   90.7495   10.2320 C.3     1  UNL1        0.0044
      5 C          62.6604   89.4638   10.8494 C.3     1  UNL1        0.0223
      6 C          62.9718   88.9134   12.2096 C.3     1  UNL1        0.0044
      7 C          63.8245   89.5126   13.2883 C.3     1  UNL1        0.0028
      8 C          61.7664   88.6165    9.9935 C.ar    1  UNL1       -0.0223
      9 C          61.9770   87.1328    9.9279 C.ar    1  UNL1       -0.0012
     10 C          61.0828   86.2855    9.0719 C.ar    1  UNL1        0.0363
     11 C          59.9782   86.9219    8.2815 C.ar    1  UNL1        0.1337
     12 O          59.0841   86.0746    7.4255 O.3     1  UNL1       -0.5055
     13 C          59.7676   88.4056    8.3470 C.ar    1  UNL1        0.0363
     14 C          60.6617   89.2529    9.2031 C.ar    1  UNL1       -0.0012
     15 H          59.2157   85.1478    7.3846 H       1  UNL1        0.2922
     16 O          65.3382   92.5286   15.0671 O.3     1  UNL1       -0.3820
     17 C          65.3452   91.1318   14.5207 C.3     1  UNL1        0.1371
     18 H          65.8803   92.5642   15.8707 H       1  UNL1        0.2104
@<TRIPOS>BOND
     1    16    17    1
     2    17     1    1
     3     1     2    1
     4     2     3    1
     5     3     4    1
     6     4     5    1
     7     5     8    1
     8     8     9   ar
     9     9    10   ar
    10    10    11   ar
    11    11    12    1
    12    11    13   ar
    13    13    14   ar
    14     5     6    1
    15     6     7    1
    16     7     1    1
    17    14     8   ar
    18    16    18    1
    19    12    15    1
@<TRIPOS>MOLECULE
*****
 18 19 0 0 0
SMALL
GASTEIGER

@<TRIPOS>ATOM
      1 C          64.0032   84.0796   12.5741 C.3     1  UNL1        0.0294
      2 C          64.4433   83.3495   11.3398 C.3     1  UNL1        0.0025
      3 C          64.0089   83.5656    9.9206 C.3     1  UNL1        0.0004
      4 C          63.0272   84.5652    9.3847 C.3     1  UNL1        0.0044
      5 C          62.2374   85.5956   10.1361 C.3     1  UNL1        0.0223
      6 C          62.2342   85.8808   11.6087 C.3     1  UNL1        0.0044
      7 C          63.0200   85.2062   12.6937 C.3     1  UNL1        0.0028
      8 C          61.3309   86.4542    9.3049 C.ar    1  UNL1       -0.0223
      9 C          61.2465   87.9288    9.5668 C.ar    1  UNL1       -0.0012
     10 C          60.3399   88.7875    8.7355 C.ar    1  UNL1        0.0363
     11 C          59.5179   88.1717    7.6424 C.ar    1  UNL1        0.1337
     12 O          58.6114   89.0303    6.8112 O.3     1  UNL1       -0.5055
     13 C          59.6023   86.6971    7.3805 C.ar    1  UNL1        0.0363
     14 C          60.5089   85.8384    8.2118 C.ar    1  UNL1       -0.0012
     15 H          58.5587   89.9514    6.9748 H       1  UNL1        0.2922
     16 O          65.7649   84.3983   14.4568 O.3     1  UNL1       -0.3820
     17 C          64.6289   83.6227   13.8585 C.3     1  UNL1        0.1371
     18 H          66.0504   83.9708   15.2794 H       1  UNL1        0.2104
@<TRIPOS>BOND
     1    16    17    1
     2    17     1    1
     3     1     2    1
     4     2     3    1
     5     3     4    1
     6     4     5    1
     7     5     8    1
     8     8     9   ar
     9     9    10   ar
    10    10    11   ar
    11    11    12    1
    12    11    13   ar
    13    13    14   ar
    14     5     6    1
    15     6     7    1
    16     7     1    1
    17    14     8   ar
    18    16    18    1
    19    12    15    1
@<TRIPOS>MOLECULE
*****
 18 19 0 0 0
SMALL
GASTEIGER

@<TRIPOS>ATOM
      1 C          60.1797   87.7355    8.7690 C.3     1  UNL1        0.0294
      2 C          60.6516   86.4461    9.3731 C.3     1  UNL1        0.0025
      3 C          61.6370   86.2397   10.4849 C.3     1  UNL1        0.0004
      4 C          62.3939   87.2715   11.2674 C.3     1  UNL1        0.0044
      5 C          62.3524   88.7647   11.1313 C.3     1  UNL1        0.0223
      6 C          61.5436   89.5949   10.1790 C.3     1  UNL1        0.0044
      7 C          60.5767   89.1369    9.1278 C.3     1  UNL1        0.0028
      8 C          63.2364   89.5288   12.0718 C.ar    1  UNL1       -0.0223
      9 C          63.6586   90.9281   11.7343 C.ar    1  UNL1       -0.0012
     10 C          64.5427   91.6922   12.6749 C.ar    1  UNL1        0.0363
     11 C          65.0047   91.0571   13.9528 C.ar    1  UNL1        0.1337
     12 O          65.8887   91.8211   14.8933 O.3     1  UNL1       -0.5055
     13 C          64.5825   89.6578   14.2903 C.ar    1  UNL1        0.0363
     14 C          63.6983   88.8937   13.3498 C.ar    1  UNL1       -0.0012
     15 H          66.1524   92.6952   14.6825 H       1  UNL1        0.2922
     16 O          58.2823   86.4055    7.5939 O.3     1  UNL1       -0.3820
     17 C          59.1784   87.6066    7.6596 C.3     1  UNL1        0.1371
     18 H          57.6997   86.4786    6.8218 H       1  UNL1        0.2104
@<TRIPOS>BOND
     1    16    17    1
     2    17     1    1
     3     1     2    1
     4     2     3    1
     5     3     4    1
     6     4     5    1
     7     5     8    1
     8     8     9   ar
     9     9    10   ar
    10    10    11   ar
    11    11    12    1
    12    11    13   ar
    13    13    14   ar
    14     5     6    1
    15     6     7    1
    16     7     1    1
    17    14     8   ar
    18    16    18    1
    19    12    15    1
@<TRIPOS>MOLECULE
*****
 18 19 0 0 0
SMALL
GASTEIGER

@<TRIPOS>ATOM
      1 C          59.8747   88.3816    8.0373 C.3     1  UNL1        0.0294
      2 C          60.4572   89.3278    9.0450 C.3     1  UNL1        0.0025
      3 C          61.4354   89.0374   10.1443 C.3     1  UNL1        0.0004
      4 C          62.0730   87.7291   10.5075 C.3     1  UNL1        0.0044
      5 C          61.8896   86.3880    9.8610 C.3     1  UNL1        0.0223
      6 C          61.0234   86.0241    8.6916 C.3     1  UNL1        0.0044
      7 C          60.1267   86.9113    7.8800 C.3     1  UNL1        0.0028
      8 C          62.6764   85.2620   10.4634 C.ar    1  UNL1       -0.0223
      9 C          62.7359   85.1019   11.9537 C.ar    1  UNL1       -0.0012
     10 C          63.5228   83.9758   12.5562 C.ar    1  UNL1        0.0363
     11 C          64.2501   83.0099   11.6684 C.ar    1  UNL1        0.1337
     12 O          65.0369   81.8840   12.2709 O.3     1  UNL1       -0.5055
     13 C          64.1907   83.1701   10.1782 C.ar    1  UNL1        0.0363
     14 C          63.4038   84.2962    9.5757 C.ar    1  UNL1       -0.0012
     15 H          65.0741   81.7839   13.2018 H       1  UNL1        0.2922
     16 O          59.3185   90.1824    6.2490 O.3     1  UNL1       -0.3820
     17 C          58.9131   88.9856    7.0572 C.3     1  UNL1        0.1371
     18 H          58.5862   90.4443    5.6693 H       1  UNL1        0.2104
@<TRIPOS>BOND
     1    16    17    1
     2    17     1    1
     3     1     2    1
     4     2     3    1
     5     3     4    1
     6     4     5    1
     7     5     8    1
     8     8     9   ar
     9     9    10   ar
    10    10    11   ar
    11    11    12    1
    12    11    13   ar
    13    13    14   ar
    14     5     6    1
    15     6     7    1
    16     7     1    1
    17    14     8   ar
    18    16    18    1
    19    12    15    1
@<TRIPOS>MOLECULE
*****
 18 19 0 0 0
SMALL
GASTEIGER

@<TRIPOS>ATOM
      1 C          63.9260   88.8658   13.5820 C.3     1  UNL1        0.0294
      2 C          63.1767   88.9793   12.2875 C.3     1  UNL1        0.0025
      3 C          62.5705   87.8859   11.4588 C.3     1  UNL1        0.0004
      4 C          62.5638   86.4088   11.7197 C.3     1  UNL1        0.0044
      5 C          63.1618   85.6603   12.8739 C.3     1  UNL1        0.0223
      6 C          63.9141   86.2041   14.0522 C.3     1  UNL1        0.0044
      7 C          64.2542   87.6306   14.3674 C.3     1  UNL1        0.0028
      8 C          62.9840   84.1712   12.8462 C.ar    1  UNL1       -0.0223
      9 C          63.1987   83.4139   11.5692 C.ar    1  UNL1       -0.0012
     10 C          63.0208   81.9247   11.5415 C.ar    1  UNL1        0.0363
     11 C          62.6283   81.1928   12.7906 C.ar    1  UNL1        0.1337
     12 O          62.4505   79.7037   12.7629 O.3     1  UNL1       -0.5055
     13 C          62.4136   81.9501   14.0675 C.ar    1  UNL1        0.0363
     14 C          62.5915   83.4393   14.0953 C.ar    1  UNL1       -0.0012
     15 H          62.5846   79.2306   11.9652 H       1  UNL1        0.2922
     16 O          63.4274   91.2208   14.5594 O.3     1  UNL1       -0.3820
     17 C          64.4114   90.1582   14.1687 C.3     1  UNL1        0.1371
     18 H          63.9034   91.9856   14.9191 H       1  UNL1        0.2104
@<TRIPOS>BOND
     1    16    17    1
     2    17     1    1
     3     1     2    1
     4     2     3    1
     5     3     4    1
     6     4     5    1
     7     5     8    1
     8     8     9   ar
     9     9    10   ar
    10    10    11   ar
    11    11    12    1
    12    11    13   ar
    13    13    14   ar
    14     5     6    1
    15     6     7    1
    16     7     1    1
    17    14     8   ar
    18    16    18    1
    19    12    15    1
@<TRIPOS>MOLECULE
*****
 18 19 0 0 0
SMALL
GASTEIGER

@<TRIPOS>ATOM
      1 C          60.5353   87.3643    8.9027 C.3     1  UNL1        0.0294
      2 C          59.8467   88.6943    8.8192 C.3     1  UNL1        0.0025
      3 C          60.1700   89.9624    9.5520 C.3     1  UNL1        0.0004
      4 C          61.2617   90.2140   10.5495 C.3     1  UNL1        0.0044
      5 C          62.2999   89.2594   11.0603 C.3     1  UNL1        0.0223
      6 C          62.5026   87.8175   10.6999 C.3     1  UNL1        0.0044
      7 C          61.7174   86.9741    9.7398 C.3     1  UNL1        0.0028
      8 C          63.2625   89.8208   12.0643 C.ar    1  UNL1       -0.0223
      9 C          63.6318   89.0208   13.2782 C.ar    1  UNL1       -0.0012
     10 C          64.5945   89.5823   14.2822 C.ar    1  UNL1        0.0363
     11 C          65.1879   90.9439   14.0723 C.ar    1  UNL1        0.1337
     12 O          66.1505   91.5054   15.0763 O.3     1  UNL1       -0.5055
     13 C          64.8186   91.7440   12.8584 C.ar    1  UNL1        0.0363
     14 C          63.8558   91.1824   11.8544 C.ar    1  UNL1       -0.0012
     15 H          66.3812   91.0056   15.8345 H       1  UNL1        0.2922
     16 O          58.5734   86.4076    7.4936 O.3     1  UNL1       -0.3820
     17 C          59.9668   86.2813    8.0344 C.3     1  UNL1        0.1371
     18 H          58.3633   85.6279    6.9561 H       1  UNL1        0.2104
@<TRIPOS>BOND
     1    16    17    1
     2    17     1    1
     3     1     2    1
     4     2     3    1
     5     3     4    1
     6     4     5    1
     7     5     8    1
     8     8     9   ar
     9     9    10   ar
    10    10    11   ar
    11    11    12    1
    12    11    13   ar
    13    13    14   ar
    14     5     6    1
    15     6     7    1
    16     7     1    1
    17    14     8   ar
    18    16    18    1
    19    12    15    1
@<TRIPOS>MOLECULE
*****
 18 19 0 0 0
SMALL
GASTEIGER

@<TRIPOS>ATOM
      1 C          62.6393   89.1264   11.0370 C.3     1  UNL1        0.0294
      2 C          61.9590   88.5187    9.8461 C.3     1  UNL1        0.0025
      3 C          61.6376   87.0766    9.5876 C.3     1  UNL1        0.0004
      4 C          61.9170   85.8859   10.4560 C.3     1  UNL1        0.0044
      5 C          62.5868   85.8432   11.7975 C.3     1  UNL1        0.0223
      6 C          63.1427   86.9808   12.6018 C.3     1  UNL1        0.0044
      7 C          63.1661   88.4418   12.2635 C.3     1  UNL1        0.0028
      8 C          62.7181   84.4832   12.4164 C.ar    1  UNL1       -0.0223
      9 C          62.7522   84.3386   13.9091 C.ar    1  UNL1       -0.0012
     10 C          62.8835   82.9785   14.5280 C.ar    1  UNL1        0.0363
     11 C          62.9807   81.7631   13.6543 C.ar    1  UNL1        0.1337
     12 O          63.1120   80.4031   14.2732 O.3     1  UNL1       -0.5055
     13 C          62.9466   81.9077   12.1616 C.ar    1  UNL1        0.0363
     14 C          62.8153   83.2678   11.5427 C.ar    1  UNL1       -0.0012
     15 H          63.1333   80.3128   15.2056 H       1  UNL1        0.2922
     16 O          62.7630   91.3411    9.6845 O.3     1  UNL1       -0.3820
     17 C          62.8161   90.6154   10.9961 C.3     1  UNL1        0.1371
     18 H          62.8948   92.2904    9.8346 H       1  UNL1        0.2104
@<TRIPOS>BOND
     1    16    17    1
     2    17     1    1
     3     1     2    1
     4     2     3    1
     5     3     4    1
     6     4     5    1
     7     5     8    1
     8     8     9   ar
     9     9    10   ar
    10    10    11   ar
    11    11    12    1
    12    11    13   ar
    13    13    14   ar
    14     5     6    1
    15     6     7    1
    16     7     1    1
    17    14     8   ar
    18    16    18    1
    19    12    15    1
@<TRIPOS>MOLECULE
*****
 18 19 0 0 0
SMALL
GASTEIGER

@<TRIPOS>ATOM
      1 C          63.6492   82.6158   13.1354 C.3     1  UNL1        0.0294
      2 C          64.1754   83.6450   14.0914 C.3     1  UNL1        0.0025
      3 C          64.0323   85.1368   14.0316 C.3     1  UNL1        0.0004
      4 C          63.3276   85.9682   13.0009 C.3     1  UNL1        0.0044
      5 C          62.5920   85.5130   11.7755 C.3     1  UNL1        0.0223
      6 C          62.3794   84.1138   11.2782 C.3     1  UNL1        0.0044
      7 C          62.8498   82.8246   11.8833 C.3     1  UNL1        0.0028
      8 C          61.9893   86.6005   10.9366 C.ar    1  UNL1       -0.0223
      9 C          60.9473   86.2661    9.9106 C.ar    1  UNL1       -0.0012
     10 C          60.3446   87.3538    9.0717 C.ar    1  UNL1        0.0363
     11 C          60.7839   88.7758    9.2586 C.ar    1  UNL1        0.1337
     12 O          60.1812   89.8634    8.4196 O.3     1  UNL1       -0.5055
     13 C          61.8259   89.1102   10.2845 C.ar    1  UNL1        0.0363
     14 C          62.4286   88.0225   11.1235 C.ar    1  UNL1       -0.0012
     15 H          59.5303   89.6545    7.7788 H       1  UNL1        0.2922
     16 O          62.9990   80.3835   14.2947 O.3     1  UNL1       -0.3820
     17 C          63.9638   81.1894   13.4764 C.3     1  UNL1        0.1371
     18 H          63.3522   79.4893   14.4232 H       1  UNL1        0.2104
@<TRIPOS>BOND
     1    16    17    1
     2    17     1    1
     3     1     2    1
     4     2     3    1
     5     3     4    1
     6     4     5    1
     7     5     8    1
     8     8     9   ar
     9     9    10   ar
    10    10    11   ar
    11    11    12    1
    12    11    13   ar
    13    13    14   ar
    14     5     6    1
    15     6     7    1
    16     7     1    1
    17    14     8   ar
    18    16    18    1
    19    12    15    1
@<TRIPOS>MOLECULE
*****
 18 19 0 0 0
SMALL
GASTEIGER

@<TRIPOS>ATOM
      1 C          61.0029   85.6324    7.4914 C.3     1  UNL1        0.0294
      2 C          59.7753   86.4942    7.5107 C.3     1  UNL1        0.0025
      3 C          59.5214   87.7426    8.3024 C.3     1  UNL1        0.0004
      4 C          60.4323   88.4377    9.2704 C.3     1  UNL1        0.0044
      5 C          61.8222   88.0560    9.6858 C.3     1  UNL1        0.0223
      6 C          62.6444   86.8849    9.2357 C.3     1  UNL1        0.0044
      7 C          62.2798   85.8064    8.2591 C.3     1  UNL1        0.0028
      8 C          62.4763   88.9656   10.6831 C.ar    1  UNL1       -0.0223
      9 C          62.7089   90.4079   10.3430 C.ar    1  UNL1       -0.0012
     10 C          63.3631   91.3176   11.3404 C.ar    1  UNL1        0.0363
     11 C          63.7847   90.7849   12.6778 C.ar    1  UNL1        0.1337
     12 O          64.4389   91.6945   13.6750 O.3     1  UNL1       -0.5055
     13 C          63.5522   89.3425   13.0178 C.ar    1  UNL1        0.0363
     14 C          62.8980   88.4329   12.0204 C.ar    1  UNL1       -0.0012
     15 H          64.5841   92.5955   13.4626 H       1  UNL1        0.2922
     16 O          61.9975   84.2460    5.5321 O.3     1  UNL1       -0.3820
     17 C          60.9462   84.4390    6.5845 C.3     1  UNL1        0.1371
     18 H          61.8141   83.4322    5.0372 H       1  UNL1        0.2104
@<TRIPOS>BOND
     1    16    17    1
     2    17     1    1
     3     1     2    1
     4     2     3    1
     5     3     4    1
     6     4     5    1
     7     5     8    1
     8     8     9   ar
     9     9    10   ar
    10    10    11   ar
    11    11    12    1
    12    11    13   ar
    13    13    14   ar
    14     5     6    1
    15     6     7    1
    16     7     1    1
    17    14     8   ar
    18    16    18    1
    19    12    15    1
