@<TRIPOS>MOLECULE
*****
 55 62 0 0 0
SMALL
GASTEIGER

@<TRIPOS>ATOM
      1 C          59.9607   88.8222    8.9930 C.ar    1  UNL1        0.0558
      2 C          59.4571   89.9109    8.0925 C.ar    1  UNL1        0.0419
      3 C          59.0288   89.5875    6.6918 C.ar    1  UNL1        0.1455
      4 C          59.1039   88.1753    6.1917 C.ar    1  UNL1        0.0388
      5 C          59.6075   87.0866    7.0923 C.ar    1  UNL1        0.0179
      6 C          60.0359   87.4100    8.4929 C.ar    1  UNL1        0.0539
      7 N          61.7341   89.8159   12.2996 N.ar    1  UNL1       -0.1285
      8 N          60.3625   89.4706   12.7988 N.ar    1  UNL1       -0.0406
      9 N          59.5312   89.0563   11.6210 N.ar    1  UNL1       -0.1074
     10 C          60.3891   89.1456   10.3937 C.ar    1  UNL1        0.2075
     11 N          61.7506   89.6150   10.8131 N.ar    1  UNL1       -0.1253
     12 C          65.1926   91.2097   14.8187 C.ar    1  UNL1       -0.0207
     13 C          65.1071   91.6091   13.3754 C.ar    1  UNL1       -0.0026
     14 C          63.9542   91.1445   12.5357 C.ar    1  UNL1        0.0206
     15 C          62.8869   90.2805   13.1393 C.ar    1  UNL1        0.1045
     16 C          62.9724   89.8811   14.5826 C.ar    1  UNL1        0.0206
     17 C          64.1252   90.3457   15.4223 C.ar    1  UNL1       -0.0026
     18 C          66.3454   91.6743   15.6584 C.3     1  UNL1        0.0437
     19 C          67.6397   92.0619   15.0069 C.3     1  UNL1        0.0771
     20 C          66.9375   94.8715    8.7728 C.ar    1  UNL1        0.1721
     21 C          67.7238   93.6785    9.2293 C.ar    1  UNL1        0.0356
     22 C          67.7028   93.2743   10.6738 C.ar    1  UNL1       -0.0202
     23 C          66.8954   94.0632   11.6616 C.ar    1  UNL1       -0.0068
     24 C          66.1090   95.2562   11.2050 C.ar    1  UNL1        0.0368
     25 C          66.1301   95.6603    9.7607 C.ar    1  UNL1        0.1721
     26 C          66.8744   93.6591   13.1060 C.3     1  UNL1        0.0990
     27 N          67.6607   92.4661   13.5624 N.3     1  UNL1       -0.2683
     28 C          68.4681   91.6772   12.5746 C.3     1  UNL1        0.0771
     29 C          68.4891   92.0813   11.1302 C.3     1  UNL1        0.0435
     30 C          66.3299   96.5693    6.9024 C.3     1  UNL1        0.2526
     31 O          66.9585   95.2757    7.3284 O.3     1  UNL1       -0.4684
     32 O          65.3437   96.8534    9.3041 O.3     1  UNL1       -0.4684
     33 C          63.8483   96.8556    9.4214 C.3     1  UNL1        0.2526
     34 N          60.5395   86.3212    9.3935 N.am    1  UNL1       -0.2778
     35 C          62.0105   86.1821    9.6519 C.2     1  UNL1        0.2843
     36 O          62.9779   87.1316    9.0097 O.2     1  UNL1       -0.2665
     37 H          59.9045   85.6980    9.8150 H       1  UNL1        0.1553
     38 C          62.5141   85.0933   10.5525 C.ar    1  UNL1        0.2017
     39 C          63.3084   83.9558    9.9822 C.ar    1  UNL1        0.0843
     40 C          63.8120   82.8671   10.8827 C.ar    1  UNL1        0.2018
     41 O          64.6064   81.7295   10.3125 O.2     1  UNL1       -0.2864
     42 C          63.5214   82.9159   12.3535 C.ar    1  UNL1        0.0735
     43 C          64.0251   81.8271   13.2540 C.ar    1  UNL1        0.0062
     44 C          63.7344   81.8758   14.7248 C.ar    1  UNL1        0.0003
     45 C          62.9402   83.0133   15.2950 C.ar    1  UNL1        0.0031
     46 C          62.4365   84.1022   14.3945 C.ar    1  UNL1        0.0376
     47 C          62.7271   84.0534   12.9237 C.ar    1  UNL1        0.1485
     48 O          62.2235   85.1421   12.0232 O.2     1  UNL1       -0.4487
     49 O          58.5252   90.6763    5.7913 O.3     1  UNL1       -0.4534
     50 C          59.4534   91.3256    4.8080 C.ar    1  UNL1        0.1484
     51 C          58.9180   92.3027    3.8037 C.ar    1  UNL1        0.0581
     52 C          59.8462   92.9520    2.8204 C.ar    1  UNL1        0.1020
     53 N          61.3099   92.6243    2.8415 N.ar    1  UNL1       -0.2421
     54 C          61.8452   91.6472    3.8459 C.ar    1  UNL1        0.1020
     55 C          60.9171   90.9979    4.8291 C.ar    1  UNL1        0.0581
@<TRIPOS>BOND
     1    30    31    1
     2    31    20    1
     3    20    21   ar
     4    21    22   ar
     5    22    23   ar
     6    23    24   ar
     7    24    25   ar
     8    25    32    1
     9    32    33    1
    10    23    26    1
    11    26    27    1
    12    27    19    1
    13    19    18    1
    14    18    12    1
    15    12    13   ar
    16    13    14   ar
    17    14    15   ar
    18    15     7    1
    19     7     8   ar
    20     8     9   ar
    21     9    10   ar
    22    10     1    1
    23     1     2   ar
    24     2     3   ar
    25     3    49    1
    26    49    50    1
    27    50    51   ar
    28    51    52   ar
    29    52    53   ar
    30    53    54   ar
    31    54    55   ar
    32     3     4   ar
    33     4     5   ar
    34     5     6   ar
    35     6    34    1
    36    34    35   am
    37    35    36    2
    38    35    38    1
    39    38    39   ar
    40    39    40   ar
    41    40    41    2
    42    40    42   ar
    43    42    43   ar
    44    43    44   ar
    45    44    45   ar
    46    45    46   ar
    47    46    47   ar
    48    47    48   ar
    49    10    11   ar
    50    15    16   ar
    51    16    17   ar
    52    27    28    1
    53    28    29    1
    54    25    20   ar
    55    17    12   ar
    56    29    22    1
    57    11     7   ar
    58     6     1   ar
    59    48    38   ar
    60    55    50   ar
    61    47    42   ar
    62    34    37    1
@<TRIPOS>MOLECULE
*****
 55 62 0 0 0
SMALL
GASTEIGER

@<TRIPOS>ATOM
      1 C          63.1885   87.8782   13.0471 C.ar    1  UNL1        0.0558
      2 C          63.2851   89.2815   13.5680 C.ar    1  UNL1        0.0419
      3 C          64.0937   89.5711   14.7977 C.ar    1  UNL1        0.1455
      4 C          64.8057   88.4574   15.5066 C.ar    1  UNL1        0.0388
      5 C          64.7092   87.0541   14.9858 C.ar    1  UNL1        0.0179
      6 C          63.9006   86.7645   13.7561 C.ar    1  UNL1        0.0539
      7 N          61.0897   87.8777    9.7821 N.ar    1  UNL1       -0.1285
      8 N          61.1816   86.4080   10.0678 N.ar    1  UNL1       -0.0406
      9 N          61.9790   86.2293   11.3256 N.ar    1  UNL1       -0.1074
     10 C          62.3800   87.5886   11.8174 C.ar    1  UNL1        0.2075
     11 N          61.8303   88.6073   10.8634 N.ar    1  UNL1       -0.1253
     12 C          58.9652   89.7663    6.2936 C.ar    1  UNL1       -0.0207
     13 C          59.8718   90.5930    7.1565 C.ar    1  UNL1       -0.0026
     14 C          60.5800   89.9634    8.3194 C.ar    1  UNL1        0.0206
     15 C          60.3816   88.5072    8.6193 C.ar    1  UNL1        0.1045
     16 C          59.4750   87.6805    7.7563 C.ar    1  UNL1        0.0206
     17 C          58.7668   88.3100    6.5935 C.ar    1  UNL1       -0.0026
     18 C          58.2570   90.3958    5.1308 C.3     1  UNL1        0.0437
     19 C          58.5667   91.8107    4.7407 C.3     1  UNL1        0.0771
     20 C          62.9375   93.6808   -0.2240 C.ar    1  UNL1        0.1721
     21 C          63.1740   92.9726    1.0769 C.ar    1  UNL1        0.0356
     22 C          62.0221   92.6821    1.9929 C.ar    1  UNL1       -0.0202
     23 C          60.6339   93.0999    1.6079 C.ar    1  UNL1       -0.0068
     24 C          60.3975   93.8082    0.3069 C.ar    1  UNL1        0.0368
     25 C          61.5493   94.0987   -0.6090 C.ar    1  UNL1        0.1721
     26 C          59.4821   92.8095    2.5238 C.3     1  UNL1        0.0990
     27 N          59.7185   92.1012    3.8247 N.3     1  UNL1       -0.2683
     28 C          61.1068   91.6834    4.2097 C.3     1  UNL1        0.0771
     29 C          62.2586   91.9738    3.2938 C.3     1  UNL1        0.0435
     30 C          64.7619   95.3115   -1.0975 C.3     1  UNL1        0.2526
     31 O          64.0894   93.9713   -1.1400 O.3     1  UNL1       -0.4684
     32 O          61.3129   94.8070   -1.9100 O.3     1  UNL1       -0.4684
     33 C          60.5908   94.1084   -3.0238 C.3     1  UNL1        0.2526
     34 N          63.8041   85.3610   13.2352 N.am    1  UNL1       -0.2778
     35 C          62.9504   84.3539   13.9471 C.2     1  UNL1        0.2843
     36 O          62.1932   84.7501   15.1799 O.2     1  UNL1       -0.2665
     37 H          64.3010   85.1010   12.4261 H       1  UNL1        0.1553
     38 C          62.8538   82.9505   13.4263 C.ar    1  UNL1        0.2017
     39 C          62.6225   81.8125   14.3757 C.ar    1  UNL1        0.0843
     40 C          62.5260   80.4092   13.8550 C.ar    1  UNL1        0.2018
     41 O          62.2947   79.2711   14.8044 O.2     1  UNL1       -0.2864
     42 C          62.6606   80.1438   12.3848 C.ar    1  UNL1        0.0735
     43 C          62.5640   78.7404   11.8640 C.ar    1  UNL1        0.0062
     44 C          62.6987   78.4751   10.3938 C.ar    1  UNL1        0.0003
     45 C          62.9300   79.6131    9.4444 C.ar    1  UNL1        0.0031
     46 C          63.0266   81.0165    9.9652 C.ar    1  UNL1        0.0376
     47 C          62.8919   81.2819   11.4354 C.ar    1  UNL1        0.1485
     48 O          62.9885   82.6852   11.9561 O.2     1  UNL1       -0.4487
     49 O          64.1902   90.9745   15.3185 O.3     1  UNL1       -0.4534
     50 C          65.3975   91.8086   15.0074 C.ar    1  UNL1        0.1484
     51 C          66.2371   92.3578   16.1224 C.ar    1  UNL1        0.0581
     52 C          67.4444   93.1919   15.8113 C.ar    1  UNL1        0.1020
     53 N          67.8120   93.4768   14.3851 N.ar    1  UNL1       -0.2421
     54 C          66.9722   92.9275   13.2702 C.ar    1  UNL1        0.1020
     55 C          65.7650   92.0934   13.5812 C.ar    1  UNL1        0.0581
@<TRIPOS>BOND
     1    30    31    1
     2    31    20    1
     3    20    21   ar
     4    21    22   ar
     5    22    23   ar
     6    23    24   ar
     7    24    25   ar
     8    25    32    1
     9    32    33    1
    10    23    26    1
    11    26    27    1
    12    27    19    1
    13    19    18    1
    14    18    12    1
    15    12    13   ar
    16    13    14   ar
    17    14    15   ar
    18    15     7    1
    19     7     8   ar
    20     8     9   ar
    21     9    10   ar
    22    10     1    1
    23     1     2   ar
    24     2     3   ar
    25     3    49    1
    26    49    50    1
    27    50    51   ar
    28    51    52   ar
    29    52    53   ar
    30    53    54   ar
    31    54    55   ar
    32     3     4   ar
    33     4     5   ar
    34     5     6   ar
    35     6    34    1
    36    34    35   am
    37    35    36    2
    38    35    38    1
    39    38    39   ar
    40    39    40   ar
    41    40    41    2
    42    40    42   ar
    43    42    43   ar
    44    43    44   ar
    45    44    45   ar
    46    45    46   ar
    47    46    47   ar
    48    47    48   ar
    49    10    11   ar
    50    15    16   ar
    51    16    17   ar
    52    27    28    1
    53    28    29    1
    54    25    20   ar
    55    17    12   ar
    56    29    22    1
    57    11     7   ar
    58     6     1   ar
    59    48    38   ar
    60    55    50   ar
    61    47    42   ar
    62    34    37    1
@<TRIPOS>MOLECULE
*****
 55 62 0 0 0
SMALL
GASTEIGER

@<TRIPOS>ATOM
      1 C          63.3423   93.5435   -3.3253 C.ar    1  UNL1        0.0558
      2 C          64.6890   93.3841   -3.9662 C.ar    1  UNL1        0.0419
      3 C          64.7988   93.2406   -5.4553 C.ar    1  UNL1        0.1455
      4 C          63.5617   93.2566   -6.3034 C.ar    1  UNL1        0.0388
      5 C          62.2150   93.4159   -5.6625 C.ar    1  UNL1        0.0179
      6 C          62.1053   93.5594   -4.1735 C.ar    1  UNL1        0.0539
      7 N          62.4908   93.4239    0.4597 N.ar    1  UNL1       -0.1285
      8 N          63.6368   94.3917    0.4509 N.ar    1  UNL1       -0.0406
      9 N          64.0953   94.5543   -0.9680 N.ar    1  UNL1       -0.1074
     10 C          63.2326   93.6870   -1.8362 C.ar    1  UNL1        0.2075
     11 N          62.2411   92.9883   -0.9538 N.ar    1  UNL1       -0.1253
     12 C          60.2038   92.0655    4.0894 C.ar    1  UNL1       -0.0207
     13 C          59.5218   92.8903    3.0384 C.ar    1  UNL1       -0.0026
     14 C          60.2842   93.3431    1.8285 C.ar    1  UNL1        0.0206
     15 C          61.7285   92.9711    1.6696 C.ar    1  UNL1        0.1045
     16 C          62.4106   92.1462    2.7205 C.ar    1  UNL1        0.0206
     17 C          61.6483   91.6935    3.9304 C.ar    1  UNL1       -0.0026
     18 C          59.4415   91.6127    5.2992 C.3     1  UNL1        0.0437
     19 C          58.9154   90.2099    5.3726 C.3     1  UNL1        0.0771
     20 C          61.3892   87.1482   11.0079 C.ar    1  UNL1        0.1721
     21 C          60.6399   86.5888    9.8351 C.ar    1  UNL1        0.0356
     22 C          60.2088   87.4941    8.7195 C.ar    1  UNL1       -0.0202
     23 C          60.5270   88.9588    8.7767 C.ar    1  UNL1       -0.0068
     24 C          61.2763   89.5183    9.9496 C.ar    1  UNL1        0.0368
     25 C          61.7074   88.6130   11.0651 C.ar    1  UNL1        0.1721
     26 C          60.0959   89.8641    7.6611 C.3     1  UNL1        0.0990
     27 N          59.3466   89.3046    6.4883 N.3     1  UNL1       -0.2683
     28 C          59.0284   87.8399    6.4311 C.3     1  UNL1        0.0771
     29 C          59.4595   86.9346    7.5467 C.3     1  UNL1        0.0435
     30 C          62.5989   84.9972   11.8202 C.3     1  UNL1        0.2526
     31 O          61.8204   86.2430   12.1236 O.3     1  UNL1       -0.4684
     32 O          62.4568   89.1724   12.2380 O.3     1  UNL1       -0.4684
     33 C          63.1646   90.4894   12.1168 C.3     1  UNL1        0.2526
     34 N          60.7584   93.7188   -3.5325 N.am    1  UNL1       -0.2778
     35 C          59.6712   94.4651   -4.2474 C.2     1  UNL1        0.2843
     36 O          59.9308   95.0520   -5.6032 O.2     1  UNL1       -0.2665
     37 H          60.5880   93.3336   -2.6426 H       1  UNL1        0.1553
     38 C          58.3244   94.6245   -3.6065 C.ar    1  UNL1        0.2017
     39 C          57.9769   93.8286   -2.3835 C.ar    1  UNL1        0.0843
     40 C          56.6302   93.9880   -1.7426 C.ar    1  UNL1        0.2018
     41 O          56.2827   93.1921   -0.5195 O.2     1  UNL1       -0.2864
     42 C          55.6309   94.9433   -2.3247 C.ar    1  UNL1        0.0735
     43 C          54.2841   95.1027   -1.6837 C.ar    1  UNL1        0.0062
     44 C          53.2848   96.0580   -2.2659 C.ar    1  UNL1        0.0003
     45 C          53.6323   96.8539   -3.4889 C.ar    1  UNL1        0.0031
     46 C          54.9791   96.6945   -4.1298 C.ar    1  UNL1        0.0376
     47 C          55.9784   95.7392   -3.5477 C.ar    1  UNL1        0.1485
     48 O          57.3251   95.5798   -4.1886 O.2     1  UNL1       -0.4487
     49 O          66.1455   93.0813   -6.0961 O.3     1  UNL1       -0.4534
     50 C          66.9035   94.2900   -6.5594 C.ar    1  UNL1        0.1484
     51 C          66.2693   95.6472   -6.4843 C.ar    1  UNL1        0.0581
     52 C          67.0273   96.8559   -6.9475 C.ar    1  UNL1        0.1020
     53 N          68.4195   96.7073   -7.4858 N.ar    1  UNL1       -0.2421
     54 C          69.0537   95.3500   -7.5609 C.ar    1  UNL1        0.1020
     55 C          68.2958   94.1414   -7.0977 C.ar    1  UNL1        0.0581
@<TRIPOS>BOND
     1    30    31    1
     2    31    20    1
     3    20    21   ar
     4    21    22   ar
     5    22    23   ar
     6    23    24   ar
     7    24    25   ar
     8    25    32    1
     9    32    33    1
    10    23    26    1
    11    26    27    1
    12    27    19    1
    13    19    18    1
    14    18    12    1
    15    12    13   ar
    16    13    14   ar
    17    14    15   ar
    18    15     7    1
    19     7     8   ar
    20     8     9   ar
    21     9    10   ar
    22    10     1    1
    23     1     2   ar
    24     2     3   ar
    25     3    49    1
    26    49    50    1
    27    50    51   ar
    28    51    52   ar
    29    52    53   ar
    30    53    54   ar
    31    54    55   ar
    32     3     4   ar
    33     4     5   ar
    34     5     6   ar
    35     6    34    1
    36    34    35   am
    37    35    36    2
    38    35    38    1
    39    38    39   ar
    40    39    40   ar
    41    40    41    2
    42    40    42   ar
    43    42    43   ar
    44    43    44   ar
    45    44    45   ar
    46    45    46   ar
    47    46    47   ar
    48    47    48   ar
    49    10    11   ar
    50    15    16   ar
    51    16    17   ar
    52    27    28    1
    53    28    29    1
    54    25    20   ar
    55    17    12   ar
    56    29    22    1
    57    11     7   ar
    58     6     1   ar
    59    48    38   ar
    60    55    50   ar
    61    47    42   ar
    62    34    37    1
@<TRIPOS>MOLECULE
*****
 55 62 0 0 0
SMALL
GASTEIGER

@<TRIPOS>ATOM
      1 C          62.9978   88.6654   12.5250 C.ar    1  UNL1        0.0558
      2 C          63.3641   90.0737   12.8887 C.ar    1  UNL1        0.0419
      3 C          64.2455   90.3373   14.0734 C.ar    1  UNL1        0.1455
      4 C          64.7606   89.1926   14.8945 C.ar    1  UNL1        0.0388
      5 C          64.3943   87.7842   14.5308 C.ar    1  UNL1        0.0179
      6 C          63.5129   87.5206   13.3461 C.ar    1  UNL1        0.0539
      7 N          60.8722   88.6979    9.2775 N.ar    1  UNL1       -0.1285
      8 N          60.6480   87.2942    9.7566 N.ar    1  UNL1       -0.0406
      9 N          61.4169   87.1112   11.0314 N.ar    1  UNL1       -0.1074
     10 C          62.1164   88.4018   11.3402 C.ar    1  UNL1        0.2075
     11 N          61.7797   89.3823   10.2562 N.ar    1  UNL1       -0.1253
     12 C          59.1284   90.5331    5.5571 C.ar    1  UNL1       -0.0207
     13 C          60.4829   90.9600    6.0400 C.ar    1  UNL1       -0.0026
     14 C          61.0641   90.3482    7.2802 C.ar    1  UNL1        0.0206
     15 C          60.2909   89.3096    8.0374 C.ar    1  UNL1        0.1045
     16 C          58.9365   88.8827    7.5545 C.ar    1  UNL1        0.0206
     17 C          58.3552   89.4944    6.3144 C.ar    1  UNL1       -0.0026
     18 C          58.5471   91.1448    4.3170 C.3     1  UNL1        0.0437
     19 C          58.9737   92.5170    3.8868 C.3     1  UNL1        0.0771
     20 C          61.8018   93.4678   -2.3058 C.ar    1  UNL1        0.1721
     21 C          62.4297   93.1993   -0.9703 C.ar    1  UNL1        0.0356
     22 C          61.5657   93.0287    0.2441 C.ar    1  UNL1       -0.0202
     23 C          60.0738   93.1267    0.1228 C.ar    1  UNL1       -0.0068
     24 C          59.4459   93.3952   -1.2128 C.ar    1  UNL1        0.0368
     25 C          60.3099   93.5657   -2.4270 C.ar    1  UNL1        0.1721
     26 C          59.2098   92.9561    1.3370 C.3     1  UNL1        0.0990
     27 N          59.8377   92.6876    2.6725 N.3     1  UNL1       -0.2683
     28 C          61.3295   92.5896    2.7938 C.3     1  UNL1        0.0771
     29 C          62.1935   92.7602    1.5796 C.3     1  UNL1        0.0435
     30 C          63.7846   92.6752   -3.7858 C.3     1  UNL1        0.2526
     31 O          62.6658   93.6384   -3.5201 O.3     1  UNL1       -0.4684
     32 O          59.6820   93.8343   -3.7626 O.3     1  UNL1       -0.4684
     33 C          58.1903   93.9356   -3.8833 C.3     1  UNL1        0.2526
     34 N          63.1465   86.1122   12.9824 N.am    1  UNL1       -0.2778
     35 C          63.9274   84.9638   13.5495 C.2     1  UNL1        0.2843
     36 O          65.0746   85.2239   14.4803 O.2     1  UNL1       -0.2665
     37 H          62.3936   85.9415   12.3715 H       1  UNL1        0.1553
     38 C          63.5612   83.5554   13.1859 C.ar    1  UNL1        0.2017
     39 C          63.0706   82.6113   14.2432 C.ar    1  UNL1        0.0843
     40 C          62.7044   81.2029   13.8796 C.ar    1  UNL1        0.2018
     41 O          62.2138   80.2587   14.9370 O.2     1  UNL1       -0.2864
     42 C          62.8286   80.7387   12.4587 C.ar    1  UNL1        0.0735
     43 C          62.4623   79.3302   12.0951 C.ar    1  UNL1        0.0062
     44 C          62.5866   78.8660   10.6741 C.ar    1  UNL1        0.0003
     45 C          63.0771   79.8101    9.6168 C.ar    1  UNL1        0.0031
     46 C          63.4434   81.2186    9.9804 C.ar    1  UNL1        0.0376
     47 C          63.3191   81.6828   11.4014 C.ar    1  UNL1        0.1485
     48 O          63.6854   83.0912   11.7649 O.2     1  UNL1       -0.4487
     49 O          64.6118   91.7457   14.4370 O.3     1  UNL1       -0.4534
     50 C          66.0533   92.1282   14.5976 C.ar    1  UNL1        0.1484
     51 C          67.0224   91.8868   13.4784 C.ar    1  UNL1        0.0581
     52 C          68.4639   92.2693   13.6389 C.ar    1  UNL1        0.1020
     53 N          68.9363   92.8931   14.9187 N.ar    1  UNL1       -0.2421
     54 C          67.9671   93.1345   16.0379 C.ar    1  UNL1        0.1020
     55 C          66.5257   92.7520   15.8774 C.ar    1  UNL1        0.0581
@<TRIPOS>BOND
     1    30    31    1
     2    31    20    1
     3    20    21   ar
     4    21    22   ar
     5    22    23   ar
     6    23    24   ar
     7    24    25   ar
     8    25    32    1
     9    32    33    1
    10    23    26    1
    11    26    27    1
    12    27    19    1
    13    19    18    1
    14    18    12    1
    15    12    13   ar
    16    13    14   ar
    17    14    15   ar
    18    15     7    1
    19     7     8   ar
    20     8     9   ar
    21     9    10   ar
    22    10     1    1
    23     1     2   ar
    24     2     3   ar
    25     3    49    1
    26    49    50    1
    27    50    51   ar
    28    51    52   ar
    29    52    53   ar
    30    53    54   ar
    31    54    55   ar
    32     3     4   ar
    33     4     5   ar
    34     5     6   ar
    35     6    34    1
    36    34    35   am
    37    35    36    2
    38    35    38    1
    39    38    39   ar
    40    39    40   ar
    41    40    41    2
    42    40    42   ar
    43    42    43   ar
    44    43    44   ar
    45    44    45   ar
    46    45    46   ar
    47    46    47   ar
    48    47    48   ar
    49    10    11   ar
    50    15    16   ar
    51    16    17   ar
    52    27    28    1
    53    28    29    1
    54    25    20   ar
    55    17    12   ar
    56    29    22    1
    57    11     7   ar
    58     6     1   ar
    59    48    38   ar
    60    55    50   ar
    61    47    42   ar
    62    34    37    1
@<TRIPOS>MOLECULE
*****
 55 62 0 0 0
SMALL
GASTEIGER

@<TRIPOS>ATOM
      1 C          63.0071   88.6981   12.4383 C.ar    1  UNL1        0.0558
      2 C          63.3742   90.1078   12.7958 C.ar    1  UNL1        0.0419
      3 C          64.2322   90.3780   13.9961 C.ar    1  UNL1        0.1455
      4 C          64.7232   89.2384   14.8390 C.ar    1  UNL1        0.0388
      5 C          64.3561   87.8287   14.4814 C.ar    1  UNL1        0.0179
      6 C          63.4980   87.5585   13.2811 C.ar    1  UNL1        0.0539
      7 N          60.9059   88.7262    9.1749 N.ar    1  UNL1       -0.1285
      8 N          60.7515   87.2980    9.6068 N.ar    1  UNL1       -0.0406
      9 N          61.5198   87.1137   10.8818 N.ar    1  UNL1       -0.1074
     10 C          62.1491   88.4279   11.2380 C.ar    1  UNL1        0.2075
     11 N          61.7696   89.4245   10.1831 N.ar    1  UNL1       -0.1253
     12 C          59.0957   90.5888    5.5002 C.ar    1  UNL1       -0.0207
     13 C          60.4739   90.9847    5.9403 C.ar    1  UNL1       -0.0026
     14 C          61.0773   90.3638    7.1653 C.ar    1  UNL1        0.0206
     15 C          60.3025   89.3470    7.9500 C.ar    1  UNL1        0.1045
     16 C          58.9242   88.9511    7.5099 C.ar    1  UNL1        0.0206
     17 C          58.3208   89.5720    6.2850 C.ar    1  UNL1       -0.0026
     18 C          58.4923   91.2096    4.2753 C.3     1  UNL1        0.0437
     19 C          58.9281   92.5755    3.8344 C.3     1  UNL1        0.0771
     20 C          63.2766   93.7768   -1.3519 C.ar    1  UNL1        0.1721
     21 C          61.8692   93.2580   -1.3506 C.ar    1  UNL1        0.0356
     22 C          61.1339   93.0874   -0.0543 C.ar    1  UNL1       -0.0202
     23 C          61.8060   93.4356    1.2407 C.ar    1  UNL1       -0.0068
     24 C          63.2135   93.9545    1.2393 C.ar    1  UNL1        0.0368
     25 C          63.9487   94.1251   -0.0569 C.ar    1  UNL1        0.1721
     26 C          61.0708   93.2650    2.5369 C.3     1  UNL1        0.0990
     27 N          59.6634   92.7461    2.5381 N.3     1  UNL1       -0.2683
     28 C          58.9913   92.3979    1.2432 C.3     1  UNL1        0.0771
     29 C          59.7265   92.5685   -0.0531 C.3     1  UNL1        0.0435
     30 C          63.9568   92.8690   -3.6892 C.3     1  UNL1        0.2526
     31 O          64.0119   93.9475   -2.6481 O.3     1  UNL1       -0.4684
     32 O          65.3562   94.6439   -0.0582 O.3     1  UNL1       -0.4684
     33 C          65.6195   96.0971   -0.3208 C.3     1  UNL1        0.2526
     34 N          63.1309   86.1487   12.9236 N.am    1  UNL1       -0.2778
     35 C          63.9085   85.0023   13.4990 C.2     1  UNL1        0.2843
     36 O          65.0532   85.2657   14.4319 O.2     1  UNL1       -0.2665
     37 H          62.3796   85.9759   12.3113 H       1  UNL1        0.1553
     38 C          63.5415   83.5925   13.1415 C.ar    1  UNL1        0.2017
     39 C          63.0372   82.6574   14.2004 C.ar    1  UNL1        0.0843
     40 C          62.6701   81.2477   13.8430 C.ar    1  UNL1        0.2018
     41 O          62.1658   80.3124   14.9018 O.2     1  UNL1       -0.2864
     42 C          62.8074   80.7730   12.4266 C.ar    1  UNL1        0.0735
     43 C          62.4403   79.3632   12.0692 C.ar    1  UNL1        0.0062
     44 C          62.5775   78.8886   10.6529 C.ar    1  UNL1        0.0003
     45 C          63.0818   79.8237    9.5940 C.ar    1  UNL1        0.0031
     46 C          63.4489   81.2336    9.9515 C.ar    1  UNL1        0.0376
     47 C          63.3117   81.7082   11.3678 C.ar    1  UNL1        0.1485
     48 O          63.6787   83.1179   11.7252 O.2     1  UNL1       -0.4487
     49 O          64.5993   91.7878   14.3536 O.3     1  UNL1       -0.4534
     50 C          66.0386   92.1609   14.5514 C.ar    1  UNL1        0.1484
     51 C          66.4854   92.7641   15.8501 C.ar    1  UNL1        0.0581
     52 C          67.9247   93.1372   16.0479 C.ar    1  UNL1        0.1020
     53 N          68.9173   92.9070   14.9470 N.ar    1  UNL1       -0.2421
     54 C          68.4705   92.3037   13.6484 C.ar    1  UNL1        0.1020
     55 C          67.0312   91.9306   13.4506 C.ar    1  UNL1        0.0581
@<TRIPOS>BOND
     1    30    31    1
     2    31    20    1
     3    20    21   ar
     4    21    22   ar
     5    22    23   ar
     6    23    24   ar
     7    24    25   ar
     8    25    32    1
     9    32    33    1
    10    23    26    1
    11    26    27    1
    12    27    19    1
    13    19    18    1
    14    18    12    1
    15    12    13   ar
    16    13    14   ar
    17    14    15   ar
    18    15     7    1
    19     7     8   ar
    20     8     9   ar
    21     9    10   ar
    22    10     1    1
    23     1     2   ar
    24     2     3   ar
    25     3    49    1
    26    49    50    1
    27    50    51   ar
    28    51    52   ar
    29    52    53   ar
    30    53    54   ar
    31    54    55   ar
    32     3     4   ar
    33     4     5   ar
    34     5     6   ar
    35     6    34    1
    36    34    35   am
    37    35    36    2
    38    35    38    1
    39    38    39   ar
    40    39    40   ar
    41    40    41    2
    42    40    42   ar
    43    42    43   ar
    44    43    44   ar
    45    44    45   ar
    46    45    46   ar
    47    46    47   ar
    48    47    48   ar
    49    10    11   ar
    50    15    16   ar
    51    16    17   ar
    52    27    28    1
    53    28    29    1
    54    25    20   ar
    55    17    12   ar
    56    29    22    1
    57    11     7   ar
    58     6     1   ar
    59    48    38   ar
    60    55    50   ar
    61    47    42   ar
    62    34    37    1
@<TRIPOS>MOLECULE
*****
 55 62 0 0 0
SMALL
GASTEIGER

@<TRIPOS>ATOM
      1 C          62.8454   85.5291   13.1249 C.ar    1  UNL1        0.0558
      2 C          62.3314   84.2222   13.6519 C.ar    1  UNL1        0.0419
      3 C          62.5470   83.8567   15.0906 C.ar    1  UNL1        0.1455
      4 C          63.2767   84.7981   16.0024 C.ar    1  UNL1        0.0388
      5 C          63.7908   86.1050   15.4754 C.ar    1  UNL1        0.0179
      6 C          63.5751   86.4705   14.0367 C.ar    1  UNL1        0.0539
      7 N          61.7256   86.8994    9.6704 N.ar    1  UNL1       -0.1285
      8 N          62.8702   86.0147    9.2741 N.ar    1  UNL1       -0.0406
      9 N          63.4290   85.3937   10.5199 N.ar    1  UNL1       -0.1074
     10 C          62.6297   85.8946   11.6862 C.ar    1  UNL1        0.2075
     11 N          61.5770   86.8252   11.1612 N.ar    1  UNL1       -0.1253
     12 C          59.1838   89.3466    6.8775 C.ar    1  UNL1       -0.0207
     13 C          59.9591   90.0203    7.9707 C.ar    1  UNL1       -0.0026
     14 C          60.8063   89.2045    8.9017 C.ar    1  UNL1        0.0206
     15 C          60.8783   87.7151    8.7394 C.ar    1  UNL1        0.1045
     16 C          60.1031   87.0414    7.6462 C.ar    1  UNL1        0.0206
     17 C          59.2558   87.8571    6.7153 C.ar    1  UNL1       -0.0026
     18 C          58.3366   90.1623    5.9465 C.3     1  UNL1        0.0437
     19 C          58.7316   91.5702    5.6121 C.3     1  UNL1        0.0771
     20 C          62.8276   93.5848    0.4726 C.ar    1  UNL1        0.1721
     21 C          63.0526   92.5956    1.5775 C.ar    1  UNL1        0.0356
     22 C          61.9723   92.3392    2.5862 C.ar    1  UNL1       -0.0202
     23 C          60.6671   93.0721    2.4899 C.ar    1  UNL1       -0.0068
     24 C          60.4421   94.0614    1.3850 C.ar    1  UNL1        0.0368
     25 C          61.5224   94.3177    0.3764 C.ar    1  UNL1        0.1721
     26 C          59.5869   92.8158    3.4986 C.3     1  UNL1        0.0990
     27 N          59.8119   91.8266    4.6034 N.3     1  UNL1       -0.2683
     28 C          61.1171   91.0937    4.6996 C.3     1  UNL1        0.0771
     29 C          62.1973   91.3500    3.6910 C.3     1  UNL1        0.0435
     30 C          64.9240   94.9167   -0.2898 C.3     1  UNL1        0.2526
     31 O          63.9078   93.8412   -0.5361 O.3     1  UNL1       -0.4684
     32 O          61.2974   95.3070   -0.7286 O.3     1  UNL1       -0.4684
     33 C          60.1753   95.1012   -1.7025 C.3     1  UNL1        0.2526
     34 N          64.0892   87.7775   13.5097 N.am    1  UNL1       -0.2778
     35 C          64.1905   88.9654   14.4199 C.2     1  UNL1        0.2843
     36 O          63.7779   88.8464   15.8571 O.2     1  UNL1       -0.2665
     37 H          64.3600   87.8556   12.5664 H       1  UNL1        0.1553
     38 C          64.7046   90.2724   13.8930 C.ar    1  UNL1        0.2017
     39 C          65.5054   91.1766   14.7823 C.ar    1  UNL1        0.0843
     40 C          66.0195   92.4835   14.2555 C.ar    1  UNL1        0.2018
     41 O          66.8204   93.3879   15.1448 O.2     1  UNL1       -0.2864
     42 C          65.7327   92.8862   12.8393 C.ar    1  UNL1        0.0735
     43 C          66.2467   94.1932   12.3124 C.ar    1  UNL1        0.0062
     44 C          65.9599   94.5959   10.8962 C.ar    1  UNL1        0.0003
     45 C          65.1591   93.6916   10.0069 C.ar    1  UNL1        0.0031
     46 C          64.6450   92.3846   10.5338 C.ar    1  UNL1        0.0376
     47 C          64.9318   91.9819   11.9500 C.ar    1  UNL1        0.1485
     48 O          64.4177   90.6750   12.4768 O.2     1  UNL1       -0.4487
     49 O          62.0330   82.5498   15.6175 O.3     1  UNL1       -0.4534
     50 C          61.9426   81.3586   14.7102 C.ar    1  UNL1        0.1484
     51 C          60.6234   80.6779   14.4952 C.ar    1  UNL1        0.0581
     52 C          60.5331   79.4868   13.5879 C.ar    1  UNL1        0.1020
     53 N          61.7621   78.9765   12.8956 N.ar    1  UNL1       -0.2421
     54 C          63.0813   79.6573   13.1107 C.ar    1  UNL1        0.1020
     55 C          63.1717   80.8483   14.0179 C.ar    1  UNL1        0.0581
@<TRIPOS>BOND
     1    30    31    1
     2    31    20    1
     3    20    21   ar
     4    21    22   ar
     5    22    23   ar
     6    23    24   ar
     7    24    25   ar
     8    25    32    1
     9    32    33    1
    10    23    26    1
    11    26    27    1
    12    27    19    1
    13    19    18    1
    14    18    12    1
    15    12    13   ar
    16    13    14   ar
    17    14    15   ar
    18    15     7    1
    19     7     8   ar
    20     8     9   ar
    21     9    10   ar
    22    10     1    1
    23     1     2   ar
    24     2     3   ar
    25     3    49    1
    26    49    50    1
    27    50    51   ar
    28    51    52   ar
    29    52    53   ar
    30    53    54   ar
    31    54    55   ar
    32     3     4   ar
    33     4     5   ar
    34     5     6   ar
    35     6    34    1
    36    34    35   am
    37    35    36    2
    38    35    38    1
    39    38    39   ar
    40    39    40   ar
    41    40    41    2
    42    40    42   ar
    43    42    43   ar
    44    43    44   ar
    45    44    45   ar
    46    45    46   ar
    47    46    47   ar
    48    47    48   ar
    49    10    11   ar
    50    15    16   ar
    51    16    17   ar
    52    27    28    1
    53    28    29    1
    54    25    20   ar
    55    17    12   ar
    56    29    22    1
    57    11     7   ar
    58     6     1   ar
    59    48    38   ar
    60    55    50   ar
    61    47    42   ar
    62    34    37    1
@<TRIPOS>MOLECULE
*****
 55 62 0 0 0
SMALL
GASTEIGER

@<TRIPOS>ATOM
      1 C          63.1082   85.6098   13.3813 C.ar    1  UNL1        0.0558
      2 C          62.4418   84.2759   13.2185 C.ar    1  UNL1        0.0419
      3 C          62.7518   83.1612   14.1731 C.ar    1  UNL1        0.1455
      4 C          63.7283   83.3803   15.2905 C.ar    1  UNL1        0.0388
      5 C          64.3947   84.7142   15.4532 C.ar    1  UNL1        0.0179
      6 C          64.0847   85.8289   14.4987 C.ar    1  UNL1        0.0539
      7 N          61.8150   88.0056   10.6148 N.ar    1  UNL1       -0.1285
      8 N          62.8272   88.8745   11.3007 N.ar    1  UNL1       -0.0406
      9 N          63.4348   88.0828   12.4206 N.ar    1  UNL1       -0.1074
     10 C          62.7982   86.7245   12.4267 C.ar    1  UNL1        0.2075
     11 N          61.7971   86.6769   11.3107 N.ar    1  UNL1       -0.1253
     12 C          59.2778   89.1792    7.0885 C.ar    1  UNL1       -0.0207
     13 C          59.8621   90.2369    7.9772 C.ar    1  UNL1       -0.0026
     14 C          60.7078   89.8457    9.1527 C.ar    1  UNL1        0.0206
     15 C          60.9693   88.3968    9.4394 C.ar    1  UNL1        0.1045
     16 C          60.3851   87.3390    8.5507 C.ar    1  UNL1        0.0206
     17 C          59.5393   87.7302    7.3752 C.ar    1  UNL1       -0.0026
     18 C          58.4321   89.5703    5.9130 C.3     1  UNL1        0.0437
     19 C          58.4279   90.9910    5.4317 C.3     1  UNL1        0.0771
     20 C          62.5183   93.9949    0.7954 C.ar    1  UNL1        0.1721
     21 C          62.8103   92.9518    1.8330 C.ar    1  UNL1        0.0356
     22 C          61.7147   92.4616    2.7327 C.ar    1  UNL1       -0.0202
     23 C          60.3271   93.0145    2.5947 C.ar    1  UNL1       -0.0068
     24 C          60.0352   94.0576    1.5570 C.ar    1  UNL1        0.0368
     25 C          61.1308   94.5478    0.6574 C.ar    1  UNL1        0.1721
     26 C          59.2316   92.5243    3.4943 C.3     1  UNL1        0.0990
     27 N          59.5235   91.4812    4.5320 N.3     1  UNL1       -0.2683
     28 C          60.9111   90.9283    4.6700 C.3     1  UNL1        0.0771
     29 C          62.0067   91.4185    3.7703 C.3     1  UNL1        0.0435
     30 C          65.0481   94.2266    0.2509 C.3     1  UNL1        0.2526
     31 O          63.6139   94.4851   -0.1044 O.3     1  UNL1       -0.4684
     32 O          60.8388   95.5909   -0.3803 O.3     1  UNL1       -0.4684
     33 C          60.4402   95.1789   -1.7665 C.3     1  UNL1        0.2526
     34 N          64.7511   87.1629   14.6614 N.am    1  UNL1       -0.2778
     35 C          64.0060   88.3015   15.2927 C.2     1  UNL1        0.2843
     36 O          62.5946   88.1061   15.7613 O.2     1  UNL1       -0.2665
     37 H          65.6775   87.2912   14.3539 H       1  UNL1        0.1553
     38 C          64.6724   89.6354   15.4555 C.ar    1  UNL1        0.2017
     39 C          64.0057   90.7140   16.2569 C.ar    1  UNL1        0.0843
     40 C          64.6720   92.0479   16.4197 C.ar    1  UNL1        0.2018
     41 O          64.0053   93.1266   17.2211 O.2     1  UNL1       -0.2864
     42 C          66.0051   92.3033   15.7812 C.ar    1  UNL1        0.0735
     43 C          66.6715   93.6373   15.9440 C.ar    1  UNL1        0.0062
     44 C          68.0046   93.8927   15.3055 C.ar    1  UNL1        0.0003
     45 C          68.6713   92.8141   14.5042 C.ar    1  UNL1        0.0031
     46 C          68.0049   91.4801   14.3413 C.ar    1  UNL1        0.0376
     47 C          66.6718   91.2247   14.9798 C.ar    1  UNL1        0.1485
     48 O          66.0055   89.8908   14.8170 O.2     1  UNL1       -0.4487
     49 O          62.0853   81.8273   14.0103 O.3     1  UNL1       -0.4534
     50 C          62.3860   80.9802   12.8094 C.ar    1  UNL1        0.1484
     51 C          62.8728   81.6201   11.5431 C.ar    1  UNL1        0.0581
     52 C          63.1735   80.7730   10.3422 C.ar    1  UNL1        0.1020
     53 N          62.9873   79.2860   10.4076 N.ar    1  UNL1       -0.2421
     54 C          62.5005   78.6462   11.6740 C.ar    1  UNL1        0.1020
     55 C          62.1998   79.4932   12.8748 C.ar    1  UNL1        0.0581
@<TRIPOS>BOND
     1    30    31    1
     2    31    20    1
     3    20    21   ar
     4    21    22   ar
     5    22    23   ar
     6    23    24   ar
     7    24    25   ar
     8    25    32    1
     9    32    33    1
    10    23    26    1
    11    26    27    1
    12    27    19    1
    13    19    18    1
    14    18    12    1
    15    12    13   ar
    16    13    14   ar
    17    14    15   ar
    18    15     7    1
    19     7     8   ar
    20     8     9   ar
    21     9    10   ar
    22    10     1    1
    23     1     2   ar
    24     2     3   ar
    25     3    49    1
    26    49    50    1
    27    50    51   ar
    28    51    52   ar
    29    52    53   ar
    30    53    54   ar
    31    54    55   ar
    32     3     4   ar
    33     4     5   ar
    34     5     6   ar
    35     6    34    1
    36    34    35   am
    37    35    36    2
    38    35    38    1
    39    38    39   ar
    40    39    40   ar
    41    40    41    2
    42    40    42   ar
    43    42    43   ar
    44    43    44   ar
    45    44    45   ar
    46    45    46   ar
    47    46    47   ar
    48    47    48   ar
    49    10    11   ar
    50    15    16   ar
    51    16    17   ar
    52    27    28    1
    53    28    29    1
    54    25    20   ar
    55    17    12   ar
    56    29    22    1
    57    11     7   ar
    58     6     1   ar
    59    48    38   ar
    60    55    50   ar
    61    47    42   ar
    62    34    37    1
@<TRIPOS>MOLECULE
*****
 55 62 0 0 0
SMALL
GASTEIGER

@<TRIPOS>ATOM
      1 C          59.8877   88.8170    9.1594 C.ar    1  UNL1        0.0558
      2 C          59.4114   89.8364    8.1677 C.ar    1  UNL1        0.0419
      3 C          59.0314   89.4123    6.7800 C.ar    1  UNL1        0.1455
      4 C          59.1277   87.9687    6.3841 C.ar    1  UNL1        0.0388
      5 C          59.6040   86.9493    7.3758 C.ar    1  UNL1        0.0179
      6 C          59.9840   87.3733    8.7635 C.ar    1  UNL1        0.0539
      7 N          61.5714   89.9355   12.4730 N.ar    1  UNL1       -0.1285
      8 N          60.1337   89.8518   12.8923 N.ar    1  UNL1       -0.0406
      9 N          59.3279   89.4226   11.7021 N.ar    1  UNL1       -0.1074
     10 C          60.2677   89.2410   10.5471 C.ar    1  UNL1        0.2075
     11 N          61.6543   89.5581   11.0236 N.ar    1  UNL1       -0.1253
     12 C          65.0290   91.1125   15.1016 C.ar    1  UNL1       -0.0207
     13 C          65.0343   91.4782   13.6469 C.ar    1  UNL1       -0.0026
     14 C          63.8817   91.0859   12.7707 C.ar    1  UNL1        0.0206
     15 C          62.7239   90.3278   13.3492 C.ar    1  UNL1        0.1045
     16 C          62.7186   89.9621   14.8039 C.ar    1  UNL1        0.0206
     17 C          63.8711   90.3544   15.6801 C.ar    1  UNL1       -0.0026
     18 C          66.1815   91.5048   15.9778 C.3     1  UNL1        0.0437
     19 C          67.3964   92.1468   15.3763 C.3     1  UNL1        0.0771
     20 C          67.4215   94.7779    9.0259 C.ar    1  UNL1        0.1721
     21 C          66.9094   95.3391   10.3193 C.ar    1  UNL1        0.0356
     22 C          67.0311   94.5410   11.5836 C.ar    1  UNL1       -0.0202
     23 C          67.6649   93.1818   11.5544 C.ar    1  UNL1       -0.0068
     24 C          68.1770   92.6207   10.2609 C.ar    1  UNL1        0.0368
     25 C          68.0553   93.4187    8.9968 C.ar    1  UNL1        0.1721
     26 C          67.7867   92.3838   12.8186 C.3     1  UNL1        0.0990
     27 N          67.2747   92.9449   14.1120 N.3     1  UNL1       -0.2683
     28 C          66.6409   94.3041   14.1412 C.3     1  UNL1        0.0771
     29 C          66.5191   95.1022   12.8770 C.3     1  UNL1        0.0435
     30 C          65.9446   95.9498    7.2383 C.3     1  UNL1        0.2526
     31 O          67.2997   95.5760    7.7616 O.3     1  UNL1       -0.4684
     32 O          68.5673   92.8576    7.7033 O.3     1  UNL1       -0.4684
     33 C          69.4015   91.6110    7.7046 C.3     1  UNL1        0.2526
     34 N          60.4604   86.3538    9.7554 N.am    1  UNL1       -0.2778
     35 C          61.9261   86.2143   10.0423 C.2     1  UNL1        0.2843
     36 O          62.9154   87.0943    9.3375 O.2     1  UNL1       -0.2665
     37 H          59.8110   85.7762   10.2180 H       1  UNL1        0.1553
     38 C          62.4025   85.1948   11.0341 C.ar    1  UNL1        0.2017
     39 C          63.0633   85.6374   12.3059 C.ar    1  UNL1        0.0843
     40 C          63.5397   84.6180   13.2977 C.ar    1  UNL1        0.2018
     41 O          64.2006   85.0606   14.5695 O.2     1  UNL1       -0.2864
     42 C          63.3553   83.1559   13.0178 C.ar    1  UNL1        0.0735
     43 C          63.8317   82.1364   14.0097 C.ar    1  UNL1        0.0062
     44 C          63.6472   80.6744   13.7297 C.ar    1  UNL1        0.0003
     45 C          62.9864   80.2318   12.4580 C.ar    1  UNL1        0.0031
     46 C          62.5100   81.2513   11.4661 C.ar    1  UNL1        0.0376
     47 C          62.6944   82.7133   11.7460 C.ar    1  UNL1        0.1485
     48 O          62.2180   83.7327   10.7542 O.2     1  UNL1       -0.4487
     49 O          58.5550   90.4319    5.7882 O.3     1  UNL1       -0.4534
     50 C          59.5371   91.1109    4.8802 C.ar    1  UNL1        0.1484
     51 C          59.0810   92.2161    3.9744 C.ar    1  UNL1        0.0581
     52 C          60.0631   92.8951    3.0664 C.ar    1  UNL1        0.1020
     53 N          61.5014   92.4689    3.0642 N.ar    1  UNL1       -0.2421
     54 C          61.9574   91.3637    3.9701 C.ar    1  UNL1        0.1020
     55 C          60.9754   90.6847    4.8780 C.ar    1  UNL1        0.0581
@<TRIPOS>BOND
     1    30    31    1
     2    31    20    1
     3    20    21   ar
     4    21    22   ar
     5    22    23   ar
     6    23    24   ar
     7    24    25   ar
     8    25    32    1
     9    32    33    1
    10    23    26    1
    11    26    27    1
    12    27    19    1
    13    19    18    1
    14    18    12    1
    15    12    13   ar
    16    13    14   ar
    17    14    15   ar
    18    15     7    1
    19     7     8   ar
    20     8     9   ar
    21     9    10   ar
    22    10     1    1
    23     1     2   ar
    24     2     3   ar
    25     3    49    1
    26    49    50    1
    27    50    51   ar
    28    51    52   ar
    29    52    53   ar
    30    53    54   ar
    31    54    55   ar
    32     3     4   ar
    33     4     5   ar
    34     5     6   ar
    35     6    34    1
    36    34    35   am
    37    35    36    2
    38    35    38    1
    39    38    39   ar
    40    39    40   ar
    41    40    41    2
    42    40    42   ar
    43    42    43   ar
    44    43    44   ar
    45    44    45   ar
    46    45    46   ar
    47    46    47   ar
    48    47    48   ar
    49    10    11   ar
    50    15    16   ar
    51    16    17   ar
    52    27    28    1
    53    28    29    1
    54    25    20   ar
    55    17    12   ar
    56    29    22    1
    57    11     7   ar
    58     6     1   ar
    59    48    38   ar
    60    55    50   ar
    61    47    42   ar
    62    34    37    1
