@<TRIPOS>MOLECULE
*****
 44 49 0 0 0
SMALL
GASTEIGER

@<TRIPOS>ATOM
      1 C          64.3525   89.8571   13.3854 C.ar    1  UNL1        0.1348
      2 C          63.5966   90.6981   12.3999 C.ar    1  UNL1        0.0346
      3 C          62.7147   90.0449   11.3774 C.ar    1  UNL1        0.0065
      4 C          62.5888   88.5507   11.3403 C.ar    1  UNL1        0.0432
      5 C          63.3447   87.7097   12.3258 C.ar    1  UNL1        0.1256
      6 N          64.2266   88.3629   13.3483 N.ar    1  UNL1       -0.2222
      7 C          61.7069   87.8976   10.3177 C.ar    1  UNL1        0.0850
      8 C          60.2310   88.1135   10.1593 C.ar    1  UNL1        0.0991
      9 N          59.7580   87.2631    9.0177 N.ar    1  UNL1       -0.2265
     10 C          60.9415   86.5217    8.4706 C.ar    1  UNL1        0.1474
     11 C          61.0782   85.5401    7.3446 C.ar    1  UNL1        0.0332
     12 C          62.4192   84.9507    7.0220 C.ar    1  UNL1       -0.0174
     13 C          62.5559   83.9692    5.8960 C.3     1  UNL1        0.0312
     14 C          63.6238   85.3428    7.8254 C.ar    1  UNL1        0.0149
     15 C          63.4872   86.3243    8.9514 C.ar    1  UNL1        0.0811
     16 N          62.1460   86.9138    9.2740 N.ar    1  UNL1       -0.2888
     17 C          59.3778   89.0205   10.9957 C.ar    1  UNL1        0.0222
     18 C          59.3771   90.4982   10.7375 C.ar    1  UNL1        0.0222
     19 C          58.5239   91.4052   11.5739 C.ar    1  UNL1        0.0989
     20 N          57.6715   90.8346   12.6683 N.ar    1  UNL1       -0.2423
     21 C          57.6723   89.3570   12.9264 C.ar    1  UNL1        0.0989
     22 C          58.5254   88.4500   12.0901 C.ar    1  UNL1        0.0222
     23 C          66.2468   91.5320   13.9824 C.2     1  UNL1        0.2414
     24 O          66.3773   91.9006   12.5342 O.2     1  UNL1       -0.2733
     25 N          65.2344   90.5103   14.4080 N.am    1  UNL1       -0.2682
     26 H          65.1488   90.2684   15.3584 H       1  UNL1        0.1563
     27 C          67.1287   92.1852   15.0050 C.3     1  UNL1        0.1319
     28 C          66.5584   92.6094   16.3260 C.3     1  UNL1        0.0270
     29 C          69.3895   93.3309   15.5758 C.3     1  UNL1        0.0862
     30 N          68.5807   92.4142   14.7066 N.3     1  UNL1       -0.2902
     31 H          69.0352   91.5016   14.7380 H       1  UNL1        0.1237
     32 C          63.2187   86.2154   12.2887 C.1     1  UNL1       -0.0404
     33 C          63.0928   84.7212   12.2517 C.1     1  UNL1       -0.0583
     34 C          62.9668   83.2269   12.2146 C.ar    1  UNL1        0.0421
     35 C          62.6749   82.4674   13.4747 C.ar    1  UNL1        0.0098
     36 C          62.5490   80.9732   13.4376 C.ar    1  UNL1        0.0197
     37 C          62.7149   80.2385   12.1405 C.ar    1  UNL1        0.0809
     38 N          62.5890   78.7442   12.1034 N.ar    1  UNL1       -0.2497
     39 C          62.7550   78.0095   10.8063 C.ar    1  UNL1        0.0593
     40 C          62.6290   76.5153   10.7692 C.3     1  UNL1        0.0521
     41 C          63.0469   78.7691    9.5461 C.ar    1  UNL1        0.0147
     42 C          63.1728   80.2633    9.5832 C.ar    1  UNL1        0.0027
     43 C          63.0069   80.9980   10.8804 C.ar    1  UNL1        0.0183
     44 C          63.1328   82.4922   10.9175 C.ar    1  UNL1        0.0097
@<TRIPOS>BOND
     1    29    30    1
     2    30    27    1
     3    27    28    1
     4    27    23    1
     5    23    24    2
     6    23    25   am
     7    25     1    1
     8     1     2   ar
     9     2     3   ar
    10     3     4   ar
    11     4     7    1
    12     7     8   ar
    13     8    17    1
    14    17    18   ar
    15    18    19   ar
    16    19    20   ar
    17    20    21   ar
    18    21    22   ar
    19     8     9   ar
    20     9    10   ar
    21    10    11   ar
    22    11    12   ar
    23    12    13    1
    24    12    14   ar
    25    14    15   ar
    26    15    16   ar
    27     4     5   ar
    28     5    32    1
    29    32    33    3
    30    33    34    1
    31    34    35   ar
    32    35    36   ar
    33    36    37   ar
    34    37    38   ar
    35    38    39   ar
    36    39    40    1
    37    39    41   ar
    38    41    42   ar
    39    42    43   ar
    40    43    44   ar
    41     5     6   ar
    42     6     1   ar
    43    16     7   ar
    44    44    34   ar
    45    22    17   ar
    46    16    10   ar
    47    43    37   ar
    48    30    31    1
    49    25    26    1
@<TRIPOS>MOLECULE
*****
 44 49 0 0 0
SMALL
GASTEIGER

@<TRIPOS>ATOM
      1 C          59.1669   89.3675    6.5897 C.ar    1  UNL1        0.1348
      2 C          58.7541   87.9455    6.8293 C.ar    1  UNL1        0.0346
      3 C          59.3838   87.1588    7.9404 C.ar    1  UNL1        0.0065
      4 C          60.4263   87.7940    8.8119 C.ar    1  UNL1        0.0432
      5 C          60.8390   89.2161    8.5724 C.ar    1  UNL1        0.1256
      6 N          60.2094   90.0028    7.4613 N.ar    1  UNL1       -0.2222
      7 C          61.0559   87.0073    9.9230 C.ar    1  UNL1        0.0850
      8 C          60.8160   87.2064   11.3903 C.ar    1  UNL1        0.0991
      9 N          61.6479   86.2054   12.1361 N.ar    1  UNL1       -0.2265
     10 C          62.4020   85.3877   11.1297 C.ar    1  UNL1        0.1474
     11 C          63.3745   84.2559   11.2820 C.ar    1  UNL1        0.0332
     12 C          63.9812   83.6197   10.0667 C.ar    1  UNL1       -0.0174
     13 C          64.9537   82.4879   10.2190 C.3     1  UNL1        0.0312
     14 C          63.6154   84.1152    8.6989 C.ar    1  UNL1        0.0149
     15 C          62.6428   85.2471    8.5466 C.ar    1  UNL1        0.0811
     16 N          62.0361   85.8833    9.7620 N.ar    1  UNL1       -0.2888
     17 C          59.9042   88.2271   12.0041 C.ar    1  UNL1        0.0222
     18 C          59.0792   87.8703   13.2049 C.ar    1  UNL1        0.0222
     19 C          58.1674   88.8911   13.8187 C.ar    1  UNL1        0.0989
     20 N          58.0807   90.2687   13.2317 N.ar    1  UNL1       -0.2423
     21 C          58.9057   90.6255   12.0309 C.ar    1  UNL1        0.0989
     22 C          59.8175   89.6047   11.4171 C.ar    1  UNL1        0.0222
     23 C          59.3352   91.1953    4.7510 C.2     1  UNL1        0.2414
     24 O          60.7630   91.4496    5.1345 O.2     1  UNL1       -0.2733
     25 N          58.5372   90.1543    5.4786 N.am    1  UNL1       -0.2682
     26 H          57.6002   89.9874    5.2270 H       1  UNL1        0.1563
     27 C          58.7056   91.9820    3.6399 C.3     1  UNL1        0.1319
     28 C          59.5693   92.6586    2.6170 C.3     1  UNL1        0.0270
     29 C          56.3650   91.7782    4.7490 C.3     1  UNL1        0.0862
     30 N          57.2122   92.0922    3.5517 N.3     1  UNL1       -0.2902
     31 H          57.0031   93.0549    3.2873 H       1  UNL1        0.1237
     32 C          61.8815   89.8514    9.4440 C.1     1  UNL1       -0.0404
     33 C          62.9239   90.4868   10.3156 C.1     1  UNL1       -0.0583
     34 C          63.9664   91.1221   11.1872 C.ar    1  UNL1        0.0421
     35 C          65.0149   92.0061   10.5795 C.ar    1  UNL1        0.0098
     36 C          66.0573   92.6414   11.4511 C.ar    1  UNL1        0.0197
     37 C          66.0513   92.3927   12.9303 C.ar    1  UNL1        0.0809
     38 N          67.0938   93.0281   13.8019 N.ar    1  UNL1       -0.2497
     39 C          67.0877   92.7794   15.2812 C.ar    1  UNL1        0.0593
     40 C          68.1301   93.4147   16.1528 C.3     1  UNL1        0.0521
     41 C          66.0391   91.8954   15.8888 C.ar    1  UNL1        0.0147
     42 C          64.9967   91.2601   15.0172 C.ar    1  UNL1        0.0027
     43 C          65.0028   91.5088   13.5380 C.ar    1  UNL1        0.0183
     44 C          63.9604   90.8735   12.6664 C.ar    1  UNL1        0.0097
@<TRIPOS>BOND
     1    29    30    1
     2    30    27    1
     3    27    28    1
     4    27    23    1
     5    23    24    2
     6    23    25   am
     7    25     1    1
     8     1     2   ar
     9     2     3   ar
    10     3     4   ar
    11     4     7    1
    12     7     8   ar
    13     8    17    1
    14    17    18   ar
    15    18    19   ar
    16    19    20   ar
    17    20    21   ar
    18    21    22   ar
    19     8     9   ar
    20     9    10   ar
    21    10    11   ar
    22    11    12   ar
    23    12    13    1
    24    12    14   ar
    25    14    15   ar
    26    15    16   ar
    27     4     5   ar
    28     5    32    1
    29    32    33    3
    30    33    34    1
    31    34    35   ar
    32    35    36   ar
    33    36    37   ar
    34    37    38   ar
    35    38    39   ar
    36    39    40    1
    37    39    41   ar
    38    41    42   ar
    39    42    43   ar
    40    43    44   ar
    41     5     6   ar
    42     6     1   ar
    43    16     7   ar
    44    44    34   ar
    45    22    17   ar
    46    16    10   ar
    47    43    37   ar
    48    30    31    1
    49    25    26    1
@<TRIPOS>MOLECULE
*****
 44 49 0 0 0
SMALL
GASTEIGER

@<TRIPOS>ATOM
      1 C          59.9112   89.9526    6.4711 C.ar    1  UNL1        0.1348
      2 C          59.3818   88.5491    6.4724 C.ar    1  UNL1        0.0346
      3 C          59.7667   87.6033    7.5712 C.ar    1  UNL1        0.0065
      4 C          60.6810   88.0610    8.6687 C.ar    1  UNL1        0.0432
      5 C          61.2104   89.4644    8.6674 C.ar    1  UNL1        0.1256
      6 N          60.8255   90.4102    7.5686 N.ar    1  UNL1       -0.2222
      7 C          61.0659   87.1152    9.7675 C.ar    1  UNL1        0.0850
      8 C          60.6086   87.1883   11.1943 C.ar    1  UNL1        0.0991
      9 N          61.2357   86.0486   11.9410 N.ar    1  UNL1       -0.2265
     10 C          62.0806   85.2711   10.9759 C.ar    1  UNL1        0.1474
     11 C          62.9320   84.0480   11.1466 C.ar    1  UNL1        0.0332
     12 C          63.6784   83.4841    9.9740 C.ar    1  UNL1       -0.0174
     13 C          64.5298   82.2610   10.1447 C.3     1  UNL1        0.0312
     14 C          63.5735   84.1433    8.6307 C.ar    1  UNL1        0.0149
     15 C          62.7221   85.3664    8.4600 C.ar    1  UNL1        0.0811
     16 N          61.9757   85.9303    9.6326 N.ar    1  UNL1       -0.2888
     17 C          59.6861   88.2200   11.7727 C.ar    1  UNL1        0.0222
     18 C          59.7451   89.6371   11.2843 C.ar    1  UNL1        0.0222
     19 C          58.8226   90.6688   11.8627 C.ar    1  UNL1        0.0989
     20 N          57.8411   90.2835   12.9295 N.ar    1  UNL1       -0.2423
     21 C          57.7820   88.8665   13.4179 C.ar    1  UNL1        0.0989
     22 C          58.7046   87.8348   12.8394 C.ar    1  UNL1        0.0222
     23 C          60.5758   91.4420    4.4488 C.2     1  UNL1        0.2414
     24 O          62.0103   91.0399    4.6240 O.2     1  UNL1       -0.2733
     25 N          59.5263   90.8983    5.3723 N.am    1  UNL1       -0.2682
     26 H          58.5849   91.1622    5.2573 H       1  UNL1        0.1563
     27 C          60.1909   92.3877    3.3500 C.3     1  UNL1        0.1319
     28 C          58.7438   92.6064    3.0213 C.3     1  UNL1        0.0270
     29 C          61.7703   92.5436    1.2930 C.3     1  UNL1        0.0862
     30 N          61.2531   93.1149    2.5799 N.3     1  UNL1       -0.2902
     31 H          60.8791   94.0386    2.3628 H       1  UNL1        0.1237
     32 C          62.1248   89.9222    9.7650 C.1     1  UNL1       -0.0404
     33 C          63.0390   90.3799   10.8625 C.1     1  UNL1       -0.0583
     34 C          63.9534   90.8376   11.9600 C.ar    1  UNL1        0.0421
     35 C          64.1290   89.9965   13.1895 C.ar    1  UNL1        0.0098
     36 C          65.0433   90.4543   14.2870 C.ar    1  UNL1        0.0197
     37 C          65.7820   91.7531   14.1549 C.ar    1  UNL1        0.0809
     38 N          66.6964   92.2108   15.2524 N.ar    1  UNL1       -0.2497
     39 C          67.4351   93.5096   15.1204 C.ar    1  UNL1        0.0593
     40 C          68.3494   93.9673   16.2178 C.3     1  UNL1        0.0521
     41 C          67.2595   94.3507   13.8908 C.ar    1  UNL1        0.0147
     42 C          66.3451   93.8929   12.7933 C.ar    1  UNL1        0.0027
     43 C          65.6064   92.5941   12.9254 C.ar    1  UNL1        0.0183
     44 C          64.6921   92.1364   11.8279 C.ar    1  UNL1        0.0097
@<TRIPOS>BOND
     1    29    30    1
     2    30    27    1
     3    27    28    1
     4    27    23    1
     5    23    24    2
     6    23    25   am
     7    25     1    1
     8     1     2   ar
     9     2     3   ar
    10     3     4   ar
    11     4     7    1
    12     7     8   ar
    13     8    17    1
    14    17    18   ar
    15    18    19   ar
    16    19    20   ar
    17    20    21   ar
    18    21    22   ar
    19     8     9   ar
    20     9    10   ar
    21    10    11   ar
    22    11    12   ar
    23    12    13    1
    24    12    14   ar
    25    14    15   ar
    26    15    16   ar
    27     4     5   ar
    28     5    32    1
    29    32    33    3
    30    33    34    1
    31    34    35   ar
    32    35    36   ar
    33    36    37   ar
    34    37    38   ar
    35    38    39   ar
    36    39    40    1
    37    39    41   ar
    38    41    42   ar
    39    42    43   ar
    40    43    44   ar
    41     5     6   ar
    42     6     1   ar
    43    16     7   ar
    44    44    34   ar
    45    22    17   ar
    46    16    10   ar
    47    43    37   ar
    48    30    31    1
    49    25    26    1
@<TRIPOS>MOLECULE
*****
 44 49 0 0 0
SMALL
GASTEIGER

@<TRIPOS>ATOM
      1 C          59.2589   89.8306    7.3213 C.ar    1  UNL1        0.1348
      2 C          59.0505   88.3498    7.4380 C.ar    1  UNL1        0.0346
      3 C          59.9119   87.5417    8.3626 C.ar    1  UNL1        0.0065
      4 C          60.9818   88.2144    9.1705 C.ar    1  UNL1        0.0432
      5 C          61.1902   89.6953    9.0538 C.ar    1  UNL1        0.1256
      6 N          60.3288   90.5033    8.1292 N.ar    1  UNL1       -0.2222
      7 C          61.8432   87.4064   10.0952 C.ar    1  UNL1        0.0850
      8 C          62.4700   86.0800    9.7824 C.ar    1  UNL1        0.0991
      9 N          63.2433   85.6366   10.9889 N.ar    1  UNL1       -0.2265
     10 C          63.0944   86.6890   12.0473 C.ar    1  UNL1        0.1474
     11 C          63.6349   86.7927   13.4427 C.ar    1  UNL1        0.0332
     12 C          63.3102   87.9901   14.2857 C.ar    1  UNL1       -0.0174
     13 C          63.8507   88.0938   15.6811 C.3     1  UNL1        0.0312
     14 C          62.4449   89.0839   13.7334 C.ar    1  UNL1        0.0149
     15 C          61.9044   88.9802   12.3381 C.ar    1  UNL1        0.0811
     16 N          62.2291   87.7828   11.4950 N.ar    1  UNL1       -0.2888
     17 C          62.3454   85.3288    8.4900 C.ar    1  UNL1        0.0222
     18 C          63.5761   84.8425    7.7835 C.ar    1  UNL1        0.0222
     19 C          63.4516   84.0913    6.4912 C.ar    1  UNL1        0.0989
     20 N          62.0964   83.8264    5.9053 N.ar    1  UNL1       -0.2423
     21 C          60.8658   84.3126    6.6118 C.ar    1  UNL1        0.0989
     22 C          60.9904   85.0638    7.9041 C.ar    1  UNL1        0.0222
     23 C          58.9662   91.1698    5.1143 C.2     1  UNL1        0.2414
     24 O          60.3964   90.8928    4.7565 O.2     1  UNL1       -0.2733
     25 N          58.3975   90.6387    6.3966 N.am    1  UNL1       -0.2682
     26 H          57.4589   90.8205    6.6314 H       1  UNL1        0.1563
     27 C          58.1048   91.9779    4.1897 C.3     1  UNL1        0.1319
     28 C          56.6591   92.2055    4.5187 C.3     1  UNL1        0.0270
     29 C          60.0540   93.1796    2.9624 C.3     1  UNL1        0.0862
     30 N          58.6890   92.5583    2.9360 N.3     1  UNL1       -0.2902
     31 H          58.7219   91.8043    2.2499 H       1  UNL1        0.1237
     32 C          62.2602   90.3681    9.8617 C.1     1  UNL1       -0.0404
     33 C          63.3300   91.0409   10.6697 C.1     1  UNL1       -0.0583
     34 C          64.3999   91.7137   11.4776 C.ar    1  UNL1        0.0421
     35 C          65.3070   92.7187   10.8319 C.ar    1  UNL1        0.0098
     36 C          66.3769   93.3915   11.6398 C.ar    1  UNL1        0.0197
     37 C          66.5396   93.0592   13.0934 C.ar    1  UNL1        0.0809
     38 N          67.6095   93.7320   13.9014 N.ar    1  UNL1       -0.2497
     39 C          67.7722   93.3998   15.3550 C.ar    1  UNL1        0.0593
     40 C          68.8420   94.0725   16.1630 C.3     1  UNL1        0.0521
     41 C          66.8650   92.3947   16.0008 C.ar    1  UNL1        0.0147
     42 C          65.7952   91.7220   15.1928 C.ar    1  UNL1        0.0027
     43 C          65.6324   92.0542   13.7392 C.ar    1  UNL1        0.0183
     44 C          64.5626   91.3814   12.9313 C.ar    1  UNL1        0.0097
@<TRIPOS>BOND
     1    29    30    1
     2    30    27    1
     3    27    28    1
     4    27    23    1
     5    23    24    2
     6    23    25   am
     7    25     1    1
     8     1     2   ar
     9     2     3   ar
    10     3     4   ar
    11     4     7    1
    12     7     8   ar
    13     8    17    1
    14    17    18   ar
    15    18    19   ar
    16    19    20   ar
    17    20    21   ar
    18    21    22   ar
    19     8     9   ar
    20     9    10   ar
    21    10    11   ar
    22    11    12   ar
    23    12    13    1
    24    12    14   ar
    25    14    15   ar
    26    15    16   ar
    27     4     5   ar
    28     5    32    1
    29    32    33    3
    30    33    34    1
    31    34    35   ar
    32    35    36   ar
    33    36    37   ar
    34    37    38   ar
    35    38    39   ar
    36    39    40    1
    37    39    41   ar
    38    41    42   ar
    39    42    43   ar
    40    43    44   ar
    41     5     6   ar
    42     6     1   ar
    43    16     7   ar
    44    44    34   ar
    45    22    17   ar
    46    16    10   ar
    47    43    37   ar
    48    30    31    1
    49    25    26    1
@<TRIPOS>MOLECULE
*****
 44 49 0 0 0
SMALL
GASTEIGER

@<TRIPOS>ATOM
      1 C          58.9424   88.8559    7.4597 C.ar    1  UNL1        0.1348
      2 C          58.8997   87.3960    7.1178 C.ar    1  UNL1        0.0346
      3 C          59.8196   86.4359    7.8120 C.ar    1  UNL1        0.0065
      4 C          60.7822   86.9356    8.8482 C.ar    1  UNL1        0.0432
      5 C          60.8249   88.3955    9.1901 C.ar    1  UNL1        0.1256
      6 N          59.9050   89.3556    8.4959 N.ar    1  UNL1       -0.2222
      7 C          61.7021   85.9755    9.5424 C.ar    1  UNL1        0.0850
      8 C          62.5068   84.8937    8.8850 C.ar    1  UNL1        0.0991
      9 N          63.2809   84.1782    9.9522 N.ar    1  UNL1       -0.2265
     10 C          62.9546   84.8178   11.2692 C.ar    1  UNL1        0.1474
     11 C          63.4198   84.5323   12.6663 C.ar    1  UNL1        0.0332
     12 C          62.9094   85.3576   13.8102 C.ar    1  UNL1       -0.0174
     13 C          63.3747   85.0721   15.2073 C.3     1  UNL1        0.0312
     14 C          61.9336   86.4684   13.5569 C.ar    1  UNL1        0.0149
     15 C          61.4684   86.7539   12.1598 C.ar    1  UNL1        0.0811
     16 N          61.9788   85.9286   11.0159 N.ar    1  UNL1       -0.2888
     17 C          62.5329   84.5821    7.4180 C.ar    1  UNL1        0.0222
     18 C          63.7678   84.8618    6.6137 C.ar    1  UNL1        0.0222
     19 C          63.7939   84.5501    5.1466 C.ar    1  UNL1        0.0989
     20 N          62.5851   83.9588    4.4839 N.ar    1  UNL1       -0.2423
     21 C          61.3503   83.6791    5.2882 C.ar    1  UNL1        0.0989
     22 C          61.3242   83.9908    6.7552 C.ar    1  UNL1        0.0222
     23 C          58.5430   90.6886    5.6621 C.2     1  UNL1        0.2414
     24 O          59.9835   90.6011    5.2528 O.2     1  UNL1       -0.2733
     25 N          58.0225   89.8160    6.7655 N.am    1  UNL1       -0.2682
     26 H          57.0771   89.8734    7.0341 H       1  UNL1        0.1563
     27 C          57.6231   91.6487    4.9678 C.3     1  UNL1        0.1319
     28 C          56.1457   91.3897    4.9469 C.3     1  UNL1        0.0270
     29 C          59.3150   92.7349    3.3224 C.3     1  UNL1        0.0862
     30 N          58.1805   92.8677    4.2946 N.3     1  UNL1       -0.2902
     31 H          57.4091   93.3036    3.7893 H       1  UNL1        0.1237
     32 C          61.7875   88.8953   10.2263 C.1     1  UNL1       -0.0404
     33 C          62.7500   89.3951   11.2625 C.1     1  UNL1       -0.0583
     34 C          63.7126   89.8949   12.2987 C.ar    1  UNL1        0.0421
     35 C          64.0050   89.0647   13.5132 C.ar    1  UNL1        0.0098
     36 C          64.9676   89.5645   14.5493 C.ar    1  UNL1        0.0197
     37 C          65.6378   90.8946   14.3709 C.ar    1  UNL1        0.0809
     38 N          66.6004   91.3944   15.4071 N.ar    1  UNL1       -0.2497
     39 C          67.2705   92.7245   15.2287 C.ar    1  UNL1        0.0593
     40 C          68.2331   93.2243   16.2648 C.3     1  UNL1        0.0521
     41 C          66.9781   93.5547   14.0141 C.ar    1  UNL1        0.0147
     42 C          66.0155   93.0549   12.9780 C.ar    1  UNL1        0.0027
     43 C          65.3453   91.7248   13.1564 C.ar    1  UNL1        0.0183
     44 C          64.3828   91.2250   12.1202 C.ar    1  UNL1        0.0097
@<TRIPOS>BOND
     1    29    30    1
     2    30    27    1
     3    27    28    1
     4    27    23    1
     5    23    24    2
     6    23    25   am
     7    25     1    1
     8     1     2   ar
     9     2     3   ar
    10     3     4   ar
    11     4     7    1
    12     7     8   ar
    13     8    17    1
    14    17    18   ar
    15    18    19   ar
    16    19    20   ar
    17    20    21   ar
    18    21    22   ar
    19     8     9   ar
    20     9    10   ar
    21    10    11   ar
    22    11    12   ar
    23    12    13    1
    24    12    14   ar
    25    14    15   ar
    26    15    16   ar
    27     4     5   ar
    28     5    32    1
    29    32    33    3
    30    33    34    1
    31    34    35   ar
    32    35    36   ar
    33    36    37   ar
    34    37    38   ar
    35    38    39   ar
    36    39    40    1
    37    39    41   ar
    38    41    42   ar
    39    42    43   ar
    40    43    44   ar
    41     5     6   ar
    42     6     1   ar
    43    16     7   ar
    44    44    34   ar
    45    22    17   ar
    46    16    10   ar
    47    43    37   ar
    48    30    31    1
    49    25    26    1
