@<TRIPOS>MOLECULE
*****
 34 39 0 0 0
SMALL
GASTEIGER

@<TRIPOS>ATOM
      1 N          64.1225   90.8325   12.6155 N.3     1  UNL1       -0.1583
      2 C          65.2566   91.8139   12.6435 C.3     1  UNL1        0.0795
      3 C          65.5047   92.7072   11.4644 C.3     1  UNL1        0.0178
      4 C          64.6188   92.6192   10.2572 C.3     1  UNL1        0.0029
      5 C          63.4848   91.6378   10.2291 C.3     1  UNL1        0.0178
      6 C          63.2366   90.7444   11.4082 C.3     1  UNL1        0.0799
      7 O          63.1658   91.0604   14.4950 O.2     1  UNL1       -0.1528
      8 S          63.8744   89.9392   13.7946 S.O2    1  UNL1        0.0632
      9 O          64.4392   88.7654   13.4398 O.2     1  UNL1       -0.1528
     10 C          63.6263   89.0458   14.9738 C.ar    1  UNL1        0.1222
     11 C          63.0253   89.6083   16.2276 C.ar    1  UNL1        0.0208
     12 C          62.7772   88.7149   17.4067 C.ar    1  UNL1        0.0128
     13 C          63.1301   87.2590   17.3319 C.ar    1  UNL1        0.0578
     14 CL         62.8820   86.3656   18.5111 Cl      1  UNL1       -0.0822
     15 C          63.7312   86.6964   16.0780 C.ar    1  UNL1        0.0128
     16 C          63.9792   87.5898   14.8990 C.ar    1  UNL1        0.0208
     17 C          66.1425   91.9020   13.8508 C.3     1  UNL1        0.0164
     18 C          67.4369   91.5828   14.5382 C.3     1  UNL1        0.0014
     19 C          66.3825   92.3736   15.2543 C.3     1  UNL1        0.0014
     20 C          62.1026   89.7631   11.3801 C.3     1  UNL1        0.0240
     21 C          60.7498   89.1648   11.6291 C.3     1  UNL1        0.0019
     22 C          61.0789   90.5253   12.1683 C.3     1  UNL1        0.0019
     23 C          62.7323   88.6600   10.5823 C.3     1  UNL1        0.0894
     24 C          62.5366   87.2308   10.9936 C.ar    1  UNL1        0.2364
     25 N          62.8652   86.6466   12.3354 N.ar    1  UNL1       -0.1934
     26 C          62.5095   85.1896   12.3064 C.ar    1  UNL1        0.1966
     27 N          61.9610   84.8735   10.9466 N.ar    1  UNL1       -0.0592
     28 O          61.9778   86.1350   10.1352 O.2     1  UNL1       -0.3373
     29 C          62.6736   84.2193   13.4385 C.3     1  UNL1        0.1424
     30 N          62.5755   82.7446   13.1823 N.3     1  UNL1       -0.2662
     31 C          63.1381   82.0162   11.9978 C.3     1  UNL1        0.0725
     32 C          62.8080   80.5608   12.1490 C.3     1  UNL1        0.0188
     33 C          62.0415   80.3897   13.4269 C.3     1  UNL1        0.0188
     34 C          61.8978   81.7394   14.0655 C.3     1  UNL1        0.0725
@<TRIPOS>BOND
     1     7     8    2
     2     8     9    2
     3     8    10    1
     4    10    11   ar
     5    11    12   ar
     6    12    13   ar
     7    13    14    1
     8    13    15   ar
     9    15    16   ar
    10     8     1    1
    11     1     2    1
    12     2    17    1
    13    17    18    1
    14    18    19    1
    15     2     3    1
    16     3     4    1
    17     4     5    1
    18     5     6    1
    19     6    20    1
    20    20    23    1
    21    23    24    1
    22    24    25   ar
    23    25    26   ar
    24    26    29    1
    25    29    30    1
    26    30    31    1
    27    31    32    1
    28    32    33    1
    29    33    34    1
    30    26    27   ar
    31    27    28   ar
    32    20    21    1
    33    21    22    1
    34    16    10   ar
    35     6     1    1
    36    22    20    1
    37    19    17    1
    38    28    24   ar
    39    34    30    1
@<TRIPOS>MOLECULE
*****
 34 39 0 0 0
SMALL
GASTEIGER

@<TRIPOS>ATOM
      1 N          64.2029   90.8787   12.7126 N.3     1  UNL1       -0.1583
      2 C          65.3674   91.8233   12.7562 C.3     1  UNL1        0.0795
      3 C          65.6291   92.7449   11.6020 C.3     1  UNL1        0.0178
      4 C          64.7263   92.7220   10.4043 C.3     1  UNL1        0.0029
      5 C          63.5619   91.7775   10.3607 C.3     1  UNL1        0.0178
      6 C          63.3002   90.8558   11.5149 C.3     1  UNL1        0.0799
      7 O          63.4749   91.1207   14.6903 O.2     1  UNL1       -0.1528
      8 S          63.9412   89.9570   13.8667 S.O2    1  UNL1        0.0632
      9 O          64.2915   88.7400   13.3989 O.2     1  UNL1       -0.1528
     10 C          63.6796   89.0353   15.0209 C.ar    1  UNL1        0.1222
     11 C          63.9782   87.5709   14.8939 C.ar    1  UNL1        0.0208
     12 C          63.7166   86.6492   16.0480 C.ar    1  UNL1        0.0128
     13 C          63.1562   87.1920   17.3292 C.ar    1  UNL1        0.0578
     14 CL         62.8945   86.2703   18.4833 Cl      1  UNL1       -0.0822
     15 C          62.8575   88.6564   17.4562 C.ar    1  UNL1        0.0128
     16 C          63.1192   89.5781   16.3021 C.ar    1  UNL1        0.0208
     17 C          66.2701   91.8462   13.9539 C.3     1  UNL1        0.0164
     18 C          66.7619   92.5263   15.1971 C.3     1  UNL1        0.0014
     19 C          67.3419   91.2057   14.7852 C.3     1  UNL1        0.0014
     20 C          62.1358   89.9113   11.4713 C.3     1  UNL1        0.0240
     21 C          60.8215   89.2771   11.8183 C.3     1  UNL1        0.0019
     22 C          61.2998   90.4770   12.5809 C.3     1  UNL1        0.0019
     23 C          62.5673   89.0175   10.3467 C.3     1  UNL1        0.0894
     24 C          61.5566   88.5123    9.3600 C.ar    1  UNL1        0.2364
     25 N          60.5556   89.3470    8.6177 N.ar    1  UNL1       -0.1934
     26 C          59.7499   88.4342    7.7414 C.ar    1  UNL1        0.1966
     27 N          60.2531   87.0355    7.9422 N.ar    1  UNL1       -0.0592
     28 O          61.3697   87.0838    8.9425 O.2     1  UNL1       -0.3373
     29 C          58.6365   88.8477    6.8251 C.3     1  UNL1        0.1424
     30 N          58.8038   90.0419    5.9330 N.3     1  UNL1       -0.2662
     31 C          60.1041   90.5771    5.4109 C.3     1  UNL1        0.0725
     32 C          59.8042   91.7766    4.5616 C.3     1  UNL1        0.0188
     33 C          58.3185   91.9826    4.5588 C.3     1  UNL1        0.0188
     34 C          57.7002   90.9106    5.4064 C.3     1  UNL1        0.0725
@<TRIPOS>BOND
     1     7     8    2
     2     8     9    2
     3     8    10    1
     4    10    11   ar
     5    11    12   ar
     6    12    13   ar
     7    13    14    1
     8    13    15   ar
     9    15    16   ar
    10     8     1    1
    11     1     2    1
    12     2    17    1
    13    17    18    1
    14    18    19    1
    15     2     3    1
    16     3     4    1
    17     4     5    1
    18     5     6    1
    19     6    20    1
    20    20    23    1
    21    23    24    1
    22    24    25   ar
    23    25    26   ar
    24    26    29    1
    25    29    30    1
    26    30    31    1
    27    31    32    1
    28    32    33    1
    29    33    34    1
    30    26    27   ar
    31    27    28   ar
    32    20    21    1
    33    21    22    1
    34    16    10   ar
    35     6     1    1
    36    22    20    1
    37    19    17    1
    38    28    24   ar
    39    34    30    1
@<TRIPOS>MOLECULE
*****
 34 39 0 0 0
SMALL
GASTEIGER

@<TRIPOS>ATOM
      1 N          64.4115   91.1466   12.6478 N.3     1  UNL1       -0.1583
      2 C          64.2020   91.7164   11.2761 C.3     1  UNL1        0.0795
      3 C          63.0500   91.2482   10.4374 C.3     1  UNL1        0.0178
      4 C          62.1073   90.2102   10.9703 C.3     1  UNL1        0.0029
      5 C          62.3167   89.6404   12.3419 C.3     1  UNL1        0.0178
      6 C          63.4688   90.1086   13.1807 C.3     1  UNL1        0.0799
      7 O          64.6199   92.4109   14.3383 O.2     1  UNL1       -0.1528
      8 S          65.5635   91.6148   13.4866 S.O2    1  UNL1        0.0632
      9 O          66.6386   91.0214   12.9254 O.2     1  UNL1       -0.1528
     10 C          66.7157   92.0830   14.3253 C.ar    1  UNL1        0.1222
     11 C          66.4777   92.5591   15.7277 C.ar    1  UNL1        0.0208
     12 C          67.6299   93.0273   16.5663 C.ar    1  UNL1        0.0128
     13 C          69.0199   93.0193   16.0027 C.ar    1  UNL1        0.0578
     14 CL         70.1721   93.4875   16.8414 Cl      1  UNL1       -0.0822
     15 C          69.2578   92.5431   14.6003 C.ar    1  UNL1        0.0128
     16 C          68.1057   92.0749   13.7617 C.ar    1  UNL1        0.0208
     17 C          65.1447   92.7544   10.7432 C.3     1  UNL1        0.0164
     18 C          65.5089   94.1947   10.5364 C.3     1  UNL1        0.0014
     19 C          66.4132   93.1118   10.0270 C.3     1  UNL1        0.0014
     20 C          63.6782   89.5388   14.5524 C.3     1  UNL1        0.0240
     21 C          63.5452   89.3459   16.0340 C.3     1  UNL1        0.0019
     22 C          62.7651   90.4263   15.3453 C.3     1  UNL1        0.0019
     23 C          64.6640   88.4535   14.2359 C.3     1  UNL1        0.0894
     24 C          64.1943   87.0386   14.0701 C.ar    1  UNL1        0.2364
     25 N          64.5908   85.8720   14.9256 N.ar    1  UNL1       -0.1934
     26 C          63.8871   84.6543   14.4039 C.ar    1  UNL1        0.1966
     27 N          63.0558   85.0684   13.2261 N.ar    1  UNL1       -0.0592
     28 O          63.2456   86.5419   13.0198 O.2     1  UNL1       -0.3373
     29 C          63.9958   83.2663   14.9622 C.3     1  UNL1        0.1424
     30 N          63.1672   82.1581   14.3832 N.3     1  UNL1       -0.2662
     31 C          63.6707   81.0390   13.5205 C.3     1  UNL1        0.0725
     32 C          62.5043   80.1636   13.1692 C.3     1  UNL1        0.0188
     33 C          61.2800   80.7417   13.8149 C.3     1  UNL1        0.0188
     34 C          61.6897   81.9743   14.5651 C.3     1  UNL1        0.0725
@<TRIPOS>BOND
     1     7     8    2
     2     8     9    2
     3     8    10    1
     4    10    11   ar
     5    11    12   ar
     6    12    13   ar
     7    13    14    1
     8    13    15   ar
     9    15    16   ar
    10     8     1    1
    11     1     2    1
    12     2    17    1
    13    17    18    1
    14    18    19    1
    15     2     3    1
    16     3     4    1
    17     4     5    1
    18     5     6    1
    19     6    20    1
    20    20    23    1
    21    23    24    1
    22    24    25   ar
    23    25    26   ar
    24    26    29    1
    25    29    30    1
    26    30    31    1
    27    31    32    1
    28    32    33    1
    29    33    34    1
    30    26    27   ar
    31    27    28   ar
    32    20    21    1
    33    21    22    1
    34    16    10   ar
    35     6     1    1
    36    22    20    1
    37    19    17    1
    38    28    24   ar
    39    34    30    1
@<TRIPOS>MOLECULE
*****
 34 39 0 0 0
SMALL
GASTEIGER

@<TRIPOS>ATOM
      1 N          63.1822   84.6993   11.5349 N.3     1  UNL1       -0.1583
      2 C          63.6176   84.0695   10.2450 C.3     1  UNL1        0.0795
      3 C          64.3815   82.7787   10.2610 C.3     1  UNL1        0.0178
      4 C          64.7099   82.1176   11.5668 C.3     1  UNL1        0.0029
      5 C          64.2745   82.7474   12.8566 C.3     1  UNL1        0.0178
      6 C          63.5106   84.0383   12.8408 C.3     1  UNL1        0.0799
      7 O          61.1676   85.2455   11.1570 O.2     1  UNL1       -0.1528
      8 S          62.4183   85.9901   11.5190 S.O2    1  UNL1        0.0632
      9 O          63.3443   86.9216   11.8316 O.2     1  UNL1       -0.1528
     10 C          61.6545   87.2810   11.5031 C.ar    1  UNL1        0.1222
     11 C          60.2056   87.2904   11.1149 C.ar    1  UNL1        0.0208
     12 C          59.4419   88.5813   11.0990 C.ar    1  UNL1        0.0128
     13 C          60.1269   89.8628   11.4712 C.ar    1  UNL1        0.0578
     14 CL         59.3631   91.1537   11.4553 Cl      1  UNL1       -0.0822
     15 C          61.5758   89.8534   11.8593 C.ar    1  UNL1        0.0128
     16 C          62.3396   88.5625   11.8753 C.ar    1  UNL1        0.0208
     17 C          63.2892   84.7306    8.9392 C.3     1  UNL1        0.0164
     18 C          63.1664   85.9721    8.1064 C.3     1  UNL1        0.0014
     19 C          62.8432   84.6341    7.5104 C.3     1  UNL1        0.0014
     20 C          63.0752   84.6680   14.1306 C.3     1  UNL1        0.0240
     21 C          62.2515   84.9576   15.3503 C.3     1  UNL1        0.0019
     22 C          61.8060   83.9072   14.3765 C.3     1  UNL1        0.0019
     23 C          64.1931   85.6475   14.3327 C.3     1  UNL1        0.0894
     24 C          63.9317   86.9511   15.0272 C.ar    1  UNL1        0.2364
     25 N          64.2619   88.3146   14.4964 N.ar    1  UNL1       -0.1934
     26 C          63.8285   89.3263   15.5156 C.ar    1  UNL1        0.1966
     27 N          63.2305   88.5879   16.6763 N.ar    1  UNL1       -0.0592
     28 O          63.2943   87.1201   16.3744 O.2     1  UNL1       -0.3373
     29 C          63.9686   90.8149   15.3951 C.3     1  UNL1        0.1424
     30 N          64.8804   91.4009   14.3582 N.3     1  UNL1       -0.2662
     31 C          66.3164   91.7836   14.5619 C.3     1  UNL1        0.0725
     32 C          66.8399   92.3263   13.2652 C.3     1  UNL1        0.0188
     33 C          65.7275   92.2789   12.2602 C.3     1  UNL1        0.0188
     34 C          64.5164   91.7070   12.9357 C.3     1  UNL1        0.0725
@<TRIPOS>BOND
     1     7     8    2
     2     8     9    2
     3     8    10    1
     4    10    11   ar
     5    11    12   ar
     6    12    13   ar
     7    13    14    1
     8    13    15   ar
     9    15    16   ar
    10     8     1    1
    11     1     2    1
    12     2    17    1
    13    17    18    1
    14    18    19    1
    15     2     3    1
    16     3     4    1
    17     4     5    1
    18     5     6    1
    19     6    20    1
    20    20    23    1
    21    23    24    1
    22    24    25   ar
    23    25    26   ar
    24    26    29    1
    25    29    30    1
    26    30    31    1
    27    31    32    1
    28    32    33    1
    29    33    34    1
    30    26    27   ar
    31    27    28   ar
    32    20    21    1
    33    21    22    1
    34    16    10   ar
    35     6     1    1
    36    22    20    1
    37    19    17    1
    38    28    24   ar
    39    34    30    1
@<TRIPOS>MOLECULE
*****
 34 39 0 0 0
SMALL
GASTEIGER

@<TRIPOS>ATOM
      1 N          60.9822   87.5626    9.1196 N.3     1  UNL1       -0.1583
      2 C          60.5304   87.1925    7.7380 C.3     1  UNL1        0.0795
      3 C          59.7712   88.1836    6.9065 C.3     1  UNL1        0.0178
      4 C          59.4638   89.5448    7.4566 C.3     1  UNL1        0.0029
      5 C          59.9156   89.9149    8.8382 C.3     1  UNL1        0.0178
      6 C          60.6749   88.9238    9.6697 C.3     1  UNL1        0.0799
      7 O          62.9698   86.8216    9.1274 O.2     1  UNL1       -0.1528
      8 S          61.7414   86.5716    9.9511 S.O2    1  UNL1        0.0632
      9 O          60.8339   86.1374   10.8514 O.2     1  UNL1       -0.1528
     10 C          62.5006   85.5804   10.7826 C.ar    1  UNL1        0.1222
     11 C          63.1312   84.3840   10.1338 C.ar    1  UNL1        0.0208
     12 C          63.8903   83.3930   10.9653 C.ar    1  UNL1        0.0128
     13 C          64.0189   83.5983   12.4456 C.ar    1  UNL1        0.0578
     14 CL         64.7780   82.6072   13.2772 Cl      1  UNL1       -0.0822
     15 C          63.3883   84.7947   13.0944 C.ar    1  UNL1        0.0128
     16 C          62.6292   85.7858   12.2629 C.ar    1  UNL1        0.0208
     17 C          60.8377   85.8313    7.1878 C.3     1  UNL1        0.0164
     18 C          60.3707   84.4964    6.6880 C.3     1  UNL1        0.0014
     19 C          61.8371   84.8086    6.7348 C.3     1  UNL1        0.0014
     20 C          61.1267   89.2940   11.0513 C.3     1  UNL1        0.0240
     21 C          61.0650   89.6275   12.5125 C.3     1  UNL1        0.0019
     22 C          59.8049   89.3172   11.7601 C.3     1  UNL1        0.0019
     23 C          62.6053   89.3993   10.8224 C.3     1  UNL1        0.0894
     24 C          63.4183   90.3823   11.6115 C.ar    1  UNL1        0.2364
     25 N          64.2564   91.4897   11.0445 N.ar    1  UNL1       -0.1934
     26 C          64.8920   92.2223   12.1887 C.ar    1  UNL1        0.1966
     27 N          64.4468   91.5678   13.4628 N.ar    1  UNL1       -0.0592
     28 O          63.5361   90.4307   13.1060 O.2     1  UNL1       -0.3373
     29 C          65.8115   93.4024   12.0781 C.3     1  UNL1        0.1424
     30 N          66.7343   93.5264   10.9022 N.3     1  UNL1       -0.2662
     31 C          66.9061   94.7422   10.0405 C.3     1  UNL1        0.0725
     32 C          67.9254   94.4237    8.9872 C.3     1  UNL1        0.0188
     33 C          68.3837   93.0110    9.1979 C.3     1  UNL1        0.0188
     34 C          67.6476   92.4565   10.3814 C.3     1  UNL1        0.0725
@<TRIPOS>BOND
     1     7     8    2
     2     8     9    2
     3     8    10    1
     4    10    11   ar
     5    11    12   ar
     6    12    13   ar
     7    13    14    1
     8    13    15   ar
     9    15    16   ar
    10     8     1    1
    11     1     2    1
    12     2    17    1
    13    17    18    1
    14    18    19    1
    15     2     3    1
    16     3     4    1
    17     4     5    1
    18     5     6    1
    19     6    20    1
    20    20    23    1
    21    23    24    1
    22    24    25   ar
    23    25    26   ar
    24    26    29    1
    25    29    30    1
    26    30    31    1
    27    31    32    1
    28    32    33    1
    29    33    34    1
    30    26    27   ar
    31    27    28   ar
    32    20    21    1
    33    21    22    1
    34    16    10   ar
    35     6     1    1
    36    22    20    1
    37    19    17    1
    38    28    24   ar
    39    34    30    1
@<TRIPOS>MOLECULE
*****
 34 39 0 0 0
SMALL
GASTEIGER

@<TRIPOS>ATOM
      1 N          60.9710   87.2780    9.0743 N.3     1  UNL1       -0.1583
      2 C          60.6885   86.9528    7.6375 C.3     1  UNL1        0.0795
      3 C          59.9491   87.9347    6.7777 C.3     1  UNL1        0.0178
      4 C          59.4922   89.2417    7.3547 C.3     1  UNL1        0.0029
      5 C          59.7747   89.5669    8.7915 C.3     1  UNL1        0.0178
      6 C          60.5141   88.5850    9.6514 C.3     1  UNL1        0.0799
      7 O          62.9901   86.6479    9.2353 O.2     1  UNL1       -0.1528
      8 S          61.7103   86.2961    9.9341 S.O2    1  UNL1        0.0632
      9 O          60.7537   85.7751   10.7317 O.2     1  UNL1       -0.1528
     10 C          62.4497   85.3142   10.7940 C.ar    1  UNL1        0.1222
     11 C          62.3126   85.3722   12.2865 C.ar    1  UNL1        0.0208
     12 C          63.0520   84.3903   13.1463 C.ar    1  UNL1        0.0128
     13 C          63.9284   83.3504   12.5135 C.ar    1  UNL1        0.0578
     14 CL         64.6678   82.3685   13.3733 Cl      1  UNL1       -0.0822
     15 C          64.0655   83.2924   11.0209 C.ar    1  UNL1        0.0128
     16 C          63.3262   84.2743   10.1611 C.ar    1  UNL1        0.0208
     17 C          61.1453   85.6458    7.0604 C.3     1  UNL1        0.0164
     18 C          62.2552   84.7170    6.6664 C.3     1  UNL1        0.0014
     19 C          60.8268   84.3109    6.4551 C.3     1  UNL1        0.0014
     20 C          60.7966   88.9101   11.0882 C.3     1  UNL1        0.0240
     21 C          60.5680   89.1381   12.5530 C.3     1  UNL1        0.0019
     22 C          59.4232   88.7432   11.6679 C.3     1  UNL1        0.0019
     23 C          62.2680   89.1900   11.0075 C.3     1  UNL1        0.0894
     24 C          63.0649   89.3820   12.2637 C.ar    1  UNL1        0.2364
     25 N          63.3294   90.6899   12.9488 N.ar    1  UNL1       -0.1934
     26 C          64.1652   90.4161   14.1639 C.ar    1  UNL1        0.1966
     27 N          64.4172   88.9389   14.2298 N.ar    1  UNL1       -0.0592
     28 O          63.7372   88.2999   13.0555 O.2     1  UNL1       -0.3373
     29 C          64.6618   91.4398   15.1414 C.3     1  UNL1        0.1424
     30 N          66.0914   91.8911   15.0933 N.3     1  UNL1       -0.2662
     31 C          67.0559   91.6465   13.9709 C.3     1  UNL1        0.0725
     32 C          68.3682   92.2705   14.3430 C.3     1  UNL1        0.0188
     33 C          68.2148   92.9006   15.6955 C.3     1  UNL1        0.0188
     34 C          66.8077   92.6662   16.1593 C.3     1  UNL1        0.0725
@<TRIPOS>BOND
     1     7     8    2
     2     8     9    2
     3     8    10    1
     4    10    11   ar
     5    11    12   ar
     6    12    13   ar
     7    13    14    1
     8    13    15   ar
     9    15    16   ar
    10     8     1    1
    11     1     2    1
    12     2    17    1
    13    17    18    1
    14    18    19    1
    15     2     3    1
    16     3     4    1
    17     4     5    1
    18     5     6    1
    19     6    20    1
    20    20    23    1
    21    23    24    1
    22    24    25   ar
    23    25    26   ar
    24    26    29    1
    25    29    30    1
    26    30    31    1
    27    31    32    1
    28    32    33    1
    29    33    34    1
    30    26    27   ar
    31    27    28   ar
    32    20    21    1
    33    21    22    1
    34    16    10   ar
    35     6     1    1
    36    22    20    1
    37    19    17    1
    38    28    24   ar
    39    34    30    1
@<TRIPOS>MOLECULE
*****
 34 39 0 0 0
SMALL
GASTEIGER

@<TRIPOS>ATOM
      1 N          64.6486   91.2316   13.5152 N.3     1  UNL1       -0.1583
      2 C          65.4947   92.3180   12.9202 C.3     1  UNL1        0.0795
      3 C          66.5182   93.0184   13.7637 C.3     1  UNL1        0.0178
      4 C          66.6957   92.6326   15.2024 C.3     1  UNL1        0.0029
      5 C          65.8496   91.5463   15.7974 C.3     1  UNL1        0.0178
      6 C          64.8260   90.8458   14.9538 C.3     1  UNL1        0.0799
      7 O          62.6701   91.6678   12.8864 O.2     1  UNL1       -0.1528
      8 S          63.6250   90.5311   12.6716 S.O2    1  UNL1        0.0632
      9 O          64.2360   89.3859   12.3003 O.2     1  UNL1       -0.1528
     10 C          62.6015   89.8306   11.8280 C.ar    1  UNL1        0.1222
     11 C          62.6914   88.3484   11.6161 C.ar    1  UNL1        0.0208
     12 C          61.6679   87.6479   10.7725 C.ar    1  UNL1        0.0128
     13 C          60.5544   88.4297   10.1408 C.ar    1  UNL1        0.0578
     14 CL         59.5309   87.7291    9.2971 Cl      1  UNL1       -0.0822
     15 C          60.4645   89.9119   10.3526 C.ar    1  UNL1        0.0128
     16 C          61.4880   90.6123   11.1962 C.ar    1  UNL1        0.0208
     17 C          65.3172   92.7038   11.4815 C.3     1  UNL1        0.0164
     18 C          64.6566   92.4915   10.1517 C.3     1  UNL1        0.0014
     19 C          65.6704   93.5842   10.3197 C.3     1  UNL1        0.0014
     20 C          63.9800   89.7595   15.5489 C.3     1  UNL1        0.0240
     21 C          62.9076   89.0912   16.3571 C.3     1  UNL1        0.0019
     22 C          63.0345   90.5858   16.3695 C.3     1  UNL1        0.0019
     23 C          64.6315   88.5560   14.9349 C.3     1  UNL1        0.0894
     24 C          64.0101   87.2008   15.0996 C.ar    1  UNL1        0.2364
     25 N          63.8749   86.1571   14.0308 N.ar    1  UNL1       -0.1934
     26 C          63.1959   84.9625   14.6327 C.ar    1  UNL1        0.1966
     27 N          62.9116   85.2680   16.0734 N.ar    1  UNL1       -0.0592
     28 O          63.4147   86.6513   16.3620 O.2     1  UNL1       -0.3373
     29 C          62.8603   83.6865   13.9190 C.3     1  UNL1        0.1424
     30 N          63.3110   83.4781   12.5036 N.3     1  UNL1       -0.2662
     31 C          62.8480   84.2555   11.3073 C.3     1  UNL1        0.0725
     32 C          63.5547   83.7135   10.1003 C.3     1  UNL1        0.0188
     33 C          64.4545   82.6011   10.5507 C.3     1  UNL1        0.0188
     34 C          64.3039   82.4556   12.0360 C.3     1  UNL1        0.0725
@<TRIPOS>BOND
     1     7     8    2
     2     8     9    2
     3     8    10    1
     4    10    11   ar
     5    11    12   ar
     6    12    13   ar
     7    13    14    1
     8    13    15   ar
     9    15    16   ar
    10     8     1    1
    11     1     2    1
    12     2    17    1
    13    17    18    1
    14    18    19    1
    15     2     3    1
    16     3     4    1
    17     4     5    1
    18     5     6    1
    19     6    20    1
    20    20    23    1
    21    23    24    1
    22    24    25   ar
    23    25    26   ar
    24    26    29    1
    25    29    30    1
    26    30    31    1
    27    31    32    1
    28    32    33    1
    29    33    34    1
    30    26    27   ar
    31    27    28   ar
    32    20    21    1
    33    21    22    1
    34    16    10   ar
    35     6     1    1
    36    22    20    1
    37    19    17    1
    38    28    24   ar
    39    34    30    1
@<TRIPOS>MOLECULE
*****
 34 39 0 0 0
SMALL
GASTEIGER

@<TRIPOS>ATOM
      1 N          62.9465   87.6532   12.3569 N.3     1  UNL1       -0.1583
      2 C          63.5521   86.7801   13.4158 C.3     1  UNL1        0.0795
      3 C          64.0472   87.3867   14.6951 C.3     1  UNL1        0.0178
      4 C          63.9368   88.8663   14.9157 C.3     1  UNL1        0.0029
      5 C          63.3313   89.7393   13.8569 C.3     1  UNL1        0.0178
      6 C          62.8361   89.1327   12.5774 C.3     1  UNL1        0.0799
      7 O          61.1570   86.6912   11.7469 O.2     1  UNL1       -0.1528
      8 S          62.4514   87.0466   11.0775 S.O2    1  UNL1        0.0632
      9 O          63.4739   87.2249   10.2142 O.2     1  UNL1       -0.1528
     10 C          61.9562   86.4400    9.7980 C.ar    1  UNL1        0.1222
     11 C          62.8538   85.5454    8.9955 C.ar    1  UNL1        0.0208
     12 C          62.3587   84.9388    7.7161 C.ar    1  UNL1        0.0128
     13 C          60.9660   85.2269    7.2392 C.ar    1  UNL1        0.0578
     14 CL         60.4708   84.6203    5.9598 Cl      1  UNL1       -0.0822
     15 C          60.0684   86.1215    8.0417 C.ar    1  UNL1        0.0128
     16 C          60.5636   86.7280    9.3211 C.ar    1  UNL1        0.0208
     17 C          63.6625   85.3006   13.1952 C.3     1  UNL1        0.0164
     18 C          63.0384   83.9968   12.7944 C.3     1  UNL1        0.0014
     19 C          64.4778   84.0417   13.2139 C.3     1  UNL1        0.0014
     20 C          62.2306   90.0057   11.5186 C.3     1  UNL1        0.0240
     21 C          61.2015   90.7754   10.7449 C.3     1  UNL1        0.0019
     22 C          60.8007   90.0113   11.9720 C.3     1  UNL1        0.0019
     23 C          63.4500   90.3034   10.6976 C.3     1  UNL1        0.0894
     24 C          64.2254   91.5651   10.9364 C.ar    1  UNL1        0.2364
     25 N          65.0171   91.8938   12.1673 N.ar    1  UNL1       -0.1934
     26 C          65.6262   93.2515   11.9778 C.ar    1  UNL1        0.1966
     27 N          65.2109   93.7617   10.6298 N.ar    1  UNL1       -0.0592
     28 O          64.3452   92.7195    9.9862 O.2     1  UNL1       -0.3373
     29 C          66.4975   93.9722   12.9634 C.3     1  UNL1        0.1424
     30 N          66.9331   93.2840   14.2230 N.3     1  UNL1       -0.2662
     31 C          68.3129   92.7746   14.5174 C.3     1  UNL1        0.0725
     32 C          68.2980   92.1600   15.8857 C.3     1  UNL1        0.0188
     33 C          66.9090   92.2896   16.4368 C.3     1  UNL1        0.0188
     34 C          66.0654   92.9842   15.4092 C.3     1  UNL1        0.0725
@<TRIPOS>BOND
     1     7     8    2
     2     8     9    2
     3     8    10    1
     4    10    11   ar
     5    11    12   ar
     6    12    13   ar
     7    13    14    1
     8    13    15   ar
     9    15    16   ar
    10     8     1    1
    11     1     2    1
    12     2    17    1
    13    17    18    1
    14    18    19    1
    15     2     3    1
    16     3     4    1
    17     4     5    1
    18     5     6    1
    19     6    20    1
    20    20    23    1
    21    23    24    1
    22    24    25   ar
    23    25    26   ar
    24    26    29    1
    25    29    30    1
    26    30    31    1
    27    31    32    1
    28    32    33    1
    29    33    34    1
    30    26    27   ar
    31    27    28   ar
    32    20    21    1
    33    21    22    1
    34    16    10   ar
    35     6     1    1
    36    22    20    1
    37    19    17    1
    38    28    24   ar
    39    34    30    1
@<TRIPOS>MOLECULE
*****
 34 39 0 0 0
SMALL
GASTEIGER

@<TRIPOS>ATOM
      1 N          62.9465   87.6130   12.3683 N.3     1  UNL1       -0.1583
      2 C          63.5492   86.7330   13.4230 C.3     1  UNL1        0.0795
      3 C          64.0351   87.3302   14.7103 C.3     1  UNL1        0.0178
      4 C          63.9183   88.8074   14.9430 C.3     1  UNL1        0.0029
      5 C          63.3156   89.6875   13.8884 C.3     1  UNL1        0.0178
      6 C          62.8297   89.0903   12.6010 C.3     1  UNL1        0.0799
      7 O          61.3417   86.3400   11.8168 O.2     1  UNL1       -0.1528
      8 S          62.4606   87.0158   11.0810 S.O2    1  UNL1        0.0632
      9 O          63.3318   87.4760   10.1580 O.2     1  UNL1       -0.1528
     10 C          61.9747   86.4186    9.7936 C.ar    1  UNL1        0.1222
     11 C          62.8779   85.5298    8.9912 C.ar    1  UNL1        0.0208
     12 C          62.3920   84.9326    7.7038 C.ar    1  UNL1        0.0128
     13 C          61.0029   85.2243    7.2190 C.ar    1  UNL1        0.0578
     14 CL         60.5170   84.6271    5.9316 Cl      1  UNL1       -0.0822
     15 C          60.0996   86.1132    8.0214 C.ar    1  UNL1        0.0128
     16 C          60.5855   86.7103    9.3087 C.ar    1  UNL1        0.0208
     17 C          63.6660   85.2558   13.1903 C.3     1  UNL1        0.0164
     18 C          64.3051   84.0990   12.4809 C.3     1  UNL1        0.0014
     19 C          63.2291   83.8539   13.4968 C.3     1  UNL1        0.0014
     20 C          62.2270   89.9703   11.5464 C.3     1  UNL1        0.0240
     21 C          61.1913   90.6835   10.7286 C.3     1  UNL1        0.0019
     22 C          60.7710   89.7954   11.8621 C.3     1  UNL1        0.0019
     23 C          63.4736   90.4508   10.8645 C.3     1  UNL1        0.0894
     24 C          64.2751   91.5668   11.4663 C.ar    1  UNL1        0.2364
     25 N          64.9658   92.6631   10.7107 N.ar    1  UNL1       -0.1934
     26 C          65.6442   93.5563   11.7068 C.ar    1  UNL1        0.1966
     27 N          65.3727   93.0119   13.0779 N.ar    1  UNL1       -0.0592
     28 O          64.5266   91.7824   12.9292 O.2     1  UNL1       -0.3373
     29 C          66.4523   94.7792   11.3877 C.3     1  UNL1        0.1424
     30 N          66.5426   95.2703    9.9733 N.3     1  UNL1       -0.2662
     31 C          65.8674   96.4895    9.4185 C.3     1  UNL1        0.0725
     32 C          66.2314   96.6012    7.9677 C.3     1  UNL1        0.0188
     33 C          67.1316   95.4511    7.6258 C.3     1  UNL1        0.0188
     34 C          67.3239   94.6286    8.8653 C.3     1  UNL1        0.0725
@<TRIPOS>BOND
     1     7     8    2
     2     8     9    2
     3     8    10    1
     4    10    11   ar
     5    11    12   ar
     6    12    13   ar
     7    13    14    1
     8    13    15   ar
     9    15    16   ar
    10     8     1    1
    11     1     2    1
    12     2    17    1
    13    17    18    1
    14    18    19    1
    15     2     3    1
    16     3     4    1
    17     4     5    1
    18     5     6    1
    19     6    20    1
    20    20    23    1
    21    23    24    1
    22    24    25   ar
    23    25    26   ar
    24    26    29    1
    25    29    30    1
    26    30    31    1
    27    31    32    1
    28    32    33    1
    29    33    34    1
    30    26    27   ar
    31    27    28   ar
    32    20    21    1
    33    21    22    1
    34    16    10   ar
    35     6     1    1
    36    22    20    1
    37    19    17    1
    38    28    24   ar
    39    34    30    1
