@<TRIPOS>MOLECULE
*****
 53 61 0 0 0
SMALL
GASTEIGER

@<TRIPOS>ATOM
      1 C          59.8950   89.4858    7.0455 C.3     1  UNL1        0.1445
      2 C          58.5621   90.0442    6.6436 C.3     1  UNL1        0.0322
      3 C          58.4548   90.9408    5.4457 C.3     1  UNL1        0.0049
      4 C          57.1218   91.4992    5.0440 C.3     1  UNL1        0.0002
      5 C          59.6804   91.2789    4.6498 C.3     1  UNL1        0.0298
      6 C          61.0134   90.7205    5.0517 C.3     1  UNL1        0.1418
      7 O          61.1207   89.8240    6.2495 O.3     1  UNL1       -0.3537
      8 C          62.0393   91.2259    4.0811 C.3     1  UNL1        0.1373
      9 O          63.5065   90.9151    4.1076 O.3     1  UNL1       -0.3820
     10 C          61.3405   92.0966    3.0794 C.3     1  UNL1        0.0272
     11 C          62.8176   91.9695    2.8519 C.3     1  UNL1        0.0025
     12 C          61.8433   92.8639    1.8927 C.3     1  UNL1        0.0023
     13 C          63.3011   92.8312    1.5412 C.3     1  UNL1        0.0001
     14 C          63.8039   93.5985    0.3544 C.3     1  UNL1        0.0001
     15 C          62.8489   94.3985   -0.4809 C.3     1  UNL1        0.0023
     16 C          63.3517   95.1658   -1.6677 C.3     1  UNL1        0.0251
     17 C          64.3006   95.7224   -2.6873 C.3     1  UNL1        0.0024
     18 C          64.6363   94.5591   -1.1865 C.3     1  UNL1        0.0024
     19 C          62.3965   95.9659   -2.5030 C.3     1  UNL1        0.1177
     20 C          60.9387   95.9987   -2.1515 C.3     1  UNL1        0.0296
     21 C          60.4359   95.2314   -0.9647 C.3     1  UNL1        0.0025
     22 C          61.3909   94.4313   -0.1294 C.3     1  UNL1        0.0002
     23 C          59.9331   94.4641    0.2221 C.3     1  UNL1        0.0000
     24 C          60.8881   93.6640    1.0573 C.3     1  UNL1        0.0001
     25 C          59.4303   93.6968    1.4088 C.3     1  UNL1        0.0000
     26 C          58.9275   92.9295    2.5956 C.3     1  UNL1        0.0002
     27 C          59.8826   92.1294    3.4309 C.3     1  UNL1        0.0046
     28 C          58.4600   92.0674    3.9025 C.3     1  UNL1        0.0002
     29 H          63.9460   91.3667    3.3701 H       1  UNL1        0.2104
     30 C          60.0023   88.5893    8.2432 C.3     1  UNL1        0.1664
     31 C          60.2726   87.1250    8.0622 C.3     1  UNL1        0.1156
     32 C          61.5700   87.2732    8.8003 C.3     1  UNL1        0.0319
     33 C          58.9751   86.9767    7.3242 C.3     1  UNL1        0.0319
     34 O          60.5429   85.6606    7.8812 O.3     1  UNL1       -0.3843
     35 H          61.3921   85.4354    8.2922 H       1  UNL1        0.2103
     36 O          59.8394   89.1571    9.6220 O.3     1  UNL1       -0.3514
     37 C          62.0877   90.3713   10.0914 C.3     1  UNL1        0.0346
     38 C          60.5897   90.3943   10.0171 C.3     1  UNL1        0.1423
     39 O          62.8993   96.7332   -3.6898 O.3     1  UNL1       -0.3320
     40 C          62.1115   96.7415   -4.9662 C.3     1  UNL1        0.2518
     41 C          60.6150   96.6464   -4.9245 C.3     1  UNL1        0.1343
     42 N          59.8272   96.6546   -6.2009 N.3     1  UNL1       -0.2651
     43 C          60.5357   96.7579   -7.5190 C.3     1  UNL1        0.1048
     44 C          62.0321   96.8530   -7.5607 C.3     1  UNL1        0.1621
     45 O          62.8200   96.8448   -6.2842 O.3     1  UNL1       -0.3280
     46 C          58.3308   96.5596   -6.1592 C.3     1  UNL1        0.0898
     47 C          57.2373   96.5856   -7.1857 C.3     1  UNL1        0.0896
     48 N          56.2145   96.4251   -6.1003 N.3     1  UNL1       -0.2716
     49 C          57.3080   96.3990   -5.0738 C.3     1  UNL1        0.0896
     50 C          54.7181   96.3301   -6.0586 C.3     1  UNL1        0.0576
     51 C          53.6985   96.1179   -4.9792 C.3     1  UNL1        0.0160
     52 C          52.6019   96.1956   -5.9997 C.3     1  UNL1        0.0028
     53 C          53.6216   96.4078   -7.0792 C.3     1  UNL1        0.0160
@<TRIPOS>BOND
     1    37    38    1
     2    38    36    1
     3    30    36    1
     4    30     1    1
     5     1     2    1
     6     2     3    1
     7     3     4    1
     8     5     3    1
     9     5     6    1
    10     6     7    1
    11     6     8    1
    12     8     9    1
    13     8    10    1
    14    10    11    1
    15    10    12    1
    16    12    13    1
    17    13    14    1
    18    15    14    1
    19    15    16    1
    20    16    17    1
    21    16    18    1
    22    16    19    1
    23    19    39    1
    24    40    39    1
    25    40    41    1
    26    41    42    1
    27    42    46    1
    28    46    47    1
    29    47    48    1
    30    48    50    1
    31    50    51    1
    32    51    52    1
    33    52    53    1
    34    48    49    1
    35    42    43    1
    36    43    44    1
    37    44    45    1
    38    19    20    1
    39    20    21    1
    40    22    21    1
    41    22    23    1
    42    24    23    1
    43    24    25    1
    44    25    26    1
    45    26    27    1
    46    27    28    1
    47    30    31    1
    48    31    32    1
    49    31    33    1
    50    31    34    1
    51     7     1    1
    52    27    10    1
    53    27     5    1
    54    24    12    1
    55    22    15    1
    56    45    40    1
    57    24    22    1
    58    49    46    1
    59    53    50    1
    60     9    29    1
    61    34    35    1
