@<TRIPOS>MOLECULE
*****
 37 40 0 0 0
SMALL
GASTEIGER

@<TRIPOS>ATOM
      1 C          61.8855   87.2548   10.7226 C.2     1  UNL1        0.3216
      2 N          62.2104   88.6697   11.1001 N.2     1  UNL1       -0.0517
      3 C          63.0412   88.9492   12.3173 C.3     1  UNL1        0.3732
      4 C          63.5471   87.8139   13.1569 C.ar    1  UNL1        0.1489
      5 C          63.2222   86.3990   12.7794 C.ar    1  UNL1        0.2152
      6 N          63.7282   85.2637   13.6191 N.ar    1  UNL1       -0.2288
      7 C          64.5590   85.5433   14.8363 C.ar    1  UNL1        0.3368
      8 O          65.0649   84.4079   15.6760 O.2     1  UNL1       -0.2460
      9 N          64.8839   86.9582   15.2139 N.ar    1  UNL1       -0.2741
     10 C          64.3780   88.0935   14.3742 C.ar    1  UNL1        0.2663
     11 O          64.7028   89.5084   14.7517 O.2     1  UNL1       -0.2671
     12 N          62.3914   86.1195   11.5622 N.pl3   1  UNL1       -0.1849
     13 H          65.4292   87.1417   16.0127 H       1  UNL1        0.1735
     14 H          62.1782   85.1909   11.3145 H       1  UNL1        0.2999
     15 C          63.4033   83.8488   13.2416 C.ar    1  UNL1        0.0714
     16 C          64.0539   83.2241   12.0431 C.ar    1  UNL1        0.0186
     17 C          63.7290   81.8092   11.6656 C.ar    1  UNL1        0.0129
     18 C          62.7536   81.0190   12.4866 C.ar    1  UNL1        0.0578
     19 CL         62.4287   79.6041   12.1091 Cl      1  UNL1       -0.0822
     20 C          62.1030   81.6437   13.6851 C.ar    1  UNL1        0.0129
     21 C          62.4278   83.0586   14.0626 C.ar    1  UNL1        0.0186
     22 C          60.6012   85.5764    7.3635 C.ar    1  UNL1        0.1390
     23 C          59.3931   86.4160    7.0709 C.ar    1  UNL1        0.0369
     24 C          59.0157   87.5352    7.9956 C.ar    1  UNL1        0.0034
     25 C          59.8466   87.8148    9.2128 C.ar    1  UNL1        0.0076
     26 C          61.0547   86.9752    9.5053 C.ar    1  UNL1        0.0851
     27 C          61.4320   85.8560    8.5806 C.ar    1  UNL1        0.0443
     28 C          62.3461   84.4215    5.8234 C.3     1  UNL1        0.2525
     29 O          60.9786   84.4572    6.4388 O.3     1  UNL1       -0.4714
     30 C          63.7861   89.7155   13.3698 C.3     1  UNL1        0.4512
     31 F          64.5312   90.4818   14.4224 F       1  UNL1       -0.1654
     32 F          62.7176   90.1448   14.3310 F       1  UNL1       -0.1654
     33 F          64.5134   89.6326   13.0539 F       1  UNL1       -0.1654
     34 C          62.7940   90.3507   11.8432 C.3     1  UNL1        0.4512
     35 F          62.5467   91.7522   11.3691 F       1  UNL1       -0.1654
     36 F          61.3320   90.1932   12.1401 F       1  UNL1       -0.1654
     37 F          63.5490   90.5246   11.6559 F       1  UNL1       -0.1654
@<TRIPOS>BOND
     1    28    29    1
     2    29    22    1
     3    22    23   ar
     4    23    24   ar
     5    24    25   ar
     6    25    26   ar
     7    26     1    1
     8     1     2    2
     9     2     3    1
    10     3    30    1
    11    30    31    1
    12    30    32    1
    13    30    33    1
    14     3    34    1
    15    34    35    1
    16    34    36    1
    17    34    37    1
    18     3     4    1
    19     4     5   ar
    20     5     6   ar
    21     6    15    1
    22    15    16   ar
    23    16    17   ar
    24    17    18   ar
    25    18    19    1
    26    18    20   ar
    27    20    21   ar
    28     6     7   ar
    29     7     8    2
    30     7     9   ar
    31     9    10   ar
    32    10    11    2
    33     5    12    1
    34    26    27   ar
    35    27    22   ar
    36    12     1    1
    37    10     4   ar
    38    21    15   ar
    39     9    13    1
    40    12    14    1
@<TRIPOS>MOLECULE
*****
 37 40 0 0 0
SMALL
GASTEIGER

@<TRIPOS>ATOM
      1 C          61.9760   87.3953   10.7164 C.2     1  UNL1        0.3216
      2 N          62.2930   88.7851   11.1831 N.2     1  UNL1       -0.0517
      3 C          63.1002   88.9915   12.4304 C.3     1  UNL1        0.3732
      4 C          63.5903   87.8081   13.2111 C.ar    1  UNL1        0.1489
      5 C          63.2732   86.4183   12.7444 C.ar    1  UNL1        0.2152
      6 N          63.7632   85.2349   13.5250 N.ar    1  UNL1       -0.2288
      7 C          64.5704   85.4413   14.7724 C.ar    1  UNL1        0.3368
      8 O          65.0605   84.2579   15.5530 O.2     1  UNL1       -0.2460
      9 N          64.8875   86.8312   15.2391 N.ar    1  UNL1       -0.2741
     10 C          64.3974   88.0146   14.4585 C.ar    1  UNL1        0.2663
     11 O          64.7145   89.4044   14.9251 O.2     1  UNL1       -0.2671
     12 N          62.4660   86.2119   11.4971 N.pl3   1  UNL1       -0.1849
     13 H          65.4173   86.9667   16.0578 H       1  UNL1        0.1735
     14 H          62.2579   85.2997   11.1908 H       1  UNL1        0.2999
     15 C          63.4462   83.8451   13.0584 C.ar    1  UNL1        0.0714
     16 C          64.1365   83.2836   11.8508 C.ar    1  UNL1        0.0186
     17 C          63.8193   81.8937   11.3841 C.ar    1  UNL1        0.0129
     18 C          62.8119   81.0654   12.1250 C.ar    1  UNL1        0.0578
     19 CL         62.4948   79.6755   11.6584 Cl      1  UNL1       -0.0822
     20 C          62.1216   81.6269   13.3326 C.ar    1  UNL1        0.0129
     21 C          62.4387   83.0167   13.7993 C.ar    1  UNL1        0.0186
     22 C          59.5530   88.1121    7.6561 C.ar    1  UNL1        0.1390
     23 C          59.5544   86.7759    6.9744 C.ar    1  UNL1        0.0369
     24 C          60.3630   85.6462    7.5400 C.ar    1  UNL1        0.0034
     25 C          61.1702   85.8527    8.7874 C.ar    1  UNL1        0.0076
     26 C          61.1688   87.1888    9.4691 C.ar    1  UNL1        0.0851
     27 C          60.3601   88.3185    8.9034 C.ar    1  UNL1        0.0443
     28 C          59.2803   90.0473    5.9442 C.3     1  UNL1        0.2525
     29 O          58.7444   89.2418    7.0905 O.3     1  UNL1       -0.4714
     30 C          63.8245   89.6936   13.5406 C.3     1  UNL1        0.4512
     31 F          64.5490   90.3957   14.6507 F       1  UNL1       -0.1654
     32 F          62.7369   90.0707   14.5023 F       1  UNL1       -0.1654
     33 F          64.5581   89.6264   13.2357 F       1  UNL1       -0.1654
     34 C          62.8617   90.4188   12.0354 C.3     1  UNL1        0.4512
     35 F          62.6231   91.8461   11.6404 F       1  UNL1       -0.1654
     36 F          61.3928   90.2416   12.2824 F       1  UNL1       -0.1654
     37 F          63.6210   90.6047   11.8796 F       1  UNL1       -0.1654
@<TRIPOS>BOND
     1    28    29    1
     2    29    22    1
     3    22    23   ar
     4    23    24   ar
     5    24    25   ar
     6    25    26   ar
     7    26     1    1
     8     1     2    2
     9     2     3    1
    10     3    30    1
    11    30    31    1
    12    30    32    1
    13    30    33    1
    14     3    34    1
    15    34    35    1
    16    34    36    1
    17    34    37    1
    18     3     4    1
    19     4     5   ar
    20     5     6   ar
    21     6    15    1
    22    15    16   ar
    23    16    17   ar
    24    17    18   ar
    25    18    19    1
    26    18    20   ar
    27    20    21   ar
    28     6     7   ar
    29     7     8    2
    30     7     9   ar
    31     9    10   ar
    32    10    11    2
    33     5    12    1
    34    26    27   ar
    35    27    22   ar
    36    12     1    1
    37    10     4   ar
    38    21    15   ar
    39     9    13    1
    40    12    14    1
@<TRIPOS>MOLECULE
*****
 37 40 0 0 0
SMALL
GASTEIGER

@<TRIPOS>ATOM
      1 C          64.2556   89.3587   14.6760 C.2     1  UNL1        0.3216
      2 N          65.2973   90.3353   15.1355 N.2     1  UNL1       -0.0517
      3 C          65.6956   91.4788   14.2503 C.3     1  UNL1        0.3732
      4 C          65.0522   91.6458   12.9056 C.ar    1  UNL1        0.1489
      5 C          64.0105   90.6693   12.4461 C.ar    1  UNL1        0.2152
      6 N          63.3672   90.8363   11.1014 N.ar    1  UNL1       -0.2288
      7 C          63.7655   91.9798   10.2162 C.ar    1  UNL1        0.3368
      8 O          63.1221   92.1468    8.8716 O.2     1  UNL1       -0.2460
      9 N          64.8072   92.9564   10.6757 N.ar    1  UNL1       -0.2741
     10 C          65.4506   92.7894   12.0204 C.ar    1  UNL1        0.2663
     11 O          66.4923   93.7660   12.4799 O.2     1  UNL1       -0.2671
     12 N          63.6122   89.5257   13.3313 N.pl3   1  UNL1       -0.1849
     13 H          65.0687   93.7070   10.0947 H       1  UNL1        0.1735
     14 H          62.9285   88.8848   13.0297 H       1  UNL1        0.2999
     15 C          62.3255   89.8597   10.6419 C.ar    1  UNL1        0.0714
     16 C          62.7385   88.5327   10.0777 C.ar    1  UNL1        0.0186
     17 C          61.6967   87.5561    9.6181 C.ar    1  UNL1        0.0129
     18 C          60.2420   87.9066    9.7229 C.ar    1  UNL1        0.0578
     19 CL         59.2002   86.9300    9.2634 Cl      1  UNL1       -0.0822
     20 C          59.8290   89.2336   10.2872 C.ar    1  UNL1        0.0129
     21 C          60.8707   90.2102   10.7467 C.ar    1  UNL1        0.0186
     22 C          63.7747   85.6628   16.0393 C.ar    1  UNL1        0.1390
     23 C          63.0605   85.9279   17.3315 C.ar    1  UNL1        0.0369
     24 C          62.7447   87.3367   17.7385 C.ar    1  UNL1        0.0034
     25 C          63.1431   88.4803   16.8533 C.ar    1  UNL1        0.0076
     26 C          63.8572   88.2151   15.5612 C.ar    1  UNL1        0.0851
     27 C          64.1730   86.8064   15.1542 C.ar    1  UNL1        0.0443
     28 C          64.0582   83.8668   14.1835 C.3     1  UNL1        0.2525
     29 O          64.0905   84.2540   15.6323 O.3     1  UNL1       -0.4714
     30 C          66.4027   92.7133   13.7747 C.3     1  UNL1        0.4512
     31 F          67.1096   93.9479   13.2992 F       1  UNL1       -0.1654
     32 F          67.6444   92.1895   13.1161 F       1  UNL1       -0.1654
     33 F          65.8664   93.2405   14.0394 F       1  UNL1       -0.1654
     34 C          66.5846   91.7406   15.4298 C.3     1  UNL1        0.4512
     35 F          67.4735   92.0025   16.6094 F       1  UNL1       -0.1654
     36 F          65.4416   92.3978   16.1453 F       1  UNL1       -0.1654
     37 F          67.2450   91.4109   15.1288 F       1  UNL1       -0.1654
@<TRIPOS>BOND
     1    28    29    1
     2    29    22    1
     3    22    23   ar
     4    23    24   ar
     5    24    25   ar
     6    25    26   ar
     7    26     1    1
     8     1     2    2
     9     2     3    1
    10     3    30    1
    11    30    31    1
    12    30    32    1
    13    30    33    1
    14     3    34    1
    15    34    35    1
    16    34    36    1
    17    34    37    1
    18     3     4    1
    19     4     5   ar
    20     5     6   ar
    21     6    15    1
    22    15    16   ar
    23    16    17   ar
    24    17    18   ar
    25    18    19    1
    26    18    20   ar
    27    20    21   ar
    28     6     7   ar
    29     7     8    2
    30     7     9   ar
    31     9    10   ar
    32    10    11    2
    33     5    12    1
    34    26    27   ar
    35    27    22   ar
    36    12     1    1
    37    10     4   ar
    38    21    15   ar
    39     9    13    1
    40    12    14    1
@<TRIPOS>MOLECULE
*****
 37 40 0 0 0
SMALL
GASTEIGER

@<TRIPOS>ATOM
      1 C          63.0002   84.0539   13.0836 C.2     1  UNL1        0.3216
      2 N          63.4934   84.7114   14.3383 N.2     1  UNL1       -0.0517
      3 C          63.6782   86.1993   14.3824 C.3     1  UNL1        0.3732
      4 C          63.3698   87.0296   13.1718 C.ar    1  UNL1        0.1489
      5 C          62.8766   86.3721   11.9171 C.ar    1  UNL1        0.2152
      6 N          62.5682   87.2024   10.7066 N.ar    1  UNL1       -0.2288
      7 C          62.7530   88.6903   10.7507 C.ar    1  UNL1        0.3368
      8 O          62.4446   89.5206    9.5401 O.2     1  UNL1       -0.2460
      9 N          63.2462   89.3479   12.0055 N.ar    1  UNL1       -0.2741
     10 C          63.5546   88.5176   13.2160 C.ar    1  UNL1        0.2663
     11 O          64.0477   89.1752   14.4707 O.2     1  UNL1       -0.2671
     12 N          62.6919   84.8842   11.8730 N.pl3   1  UNL1       -0.1849
     13 H          63.3674   90.3245   12.0344 H       1  UNL1        0.1735
     14 H          62.3682   84.4526   11.0495 H       1  UNL1        0.2999
     15 C          62.0751   86.5448    9.4519 C.ar    1  UNL1        0.0714
     16 C          63.0080   85.7089    8.6267 C.ar    1  UNL1        0.0186
     17 C          62.5147   85.0513    7.3719 C.ar    1  UNL1        0.0129
     18 C          61.0887   85.2296    6.9424 C.ar    1  UNL1        0.0578
     19 CL         60.5954   84.5720    5.6876 Cl      1  UNL1       -0.0822
     20 C          60.1558   86.0656    7.7676 C.ar    1  UNL1        0.0129
     21 C          60.6489   86.7231    9.0223 C.ar    1  UNL1        0.0186
     22 C          62.7976   80.3397   11.7001 C.ar    1  UNL1        0.1390
     23 C          62.4459   79.5900   12.9509 C.ar    1  UNL1        0.0369
     24 C          62.2789   80.3284   14.2459 C.ar    1  UNL1        0.0034
     25 C          62.4637   81.8163   14.2901 C.ar    1  UNL1        0.0076
     26 C          62.8155   82.5659   13.0394 C.ar    1  UNL1        0.0851
     27 C          62.9824   81.8275   11.7444 C.ar    1  UNL1        0.0443
     28 C          62.7274   78.1212   10.3497 C.3     1  UNL1        0.2525
     29 O          62.9646   79.6013   10.4052 O.3     1  UNL1       -0.4714
     30 C          64.0101   87.5634   14.9107 C.3     1  UNL1        0.4512
     31 F          64.3421   88.9276   15.4389 F       1  UNL1       -0.1654
     32 F          62.9385   87.8302   15.9258 F       1  UNL1       -0.1654
     33 F          64.6579   87.6862   14.4625 F       1  UNL1       -0.1654
     34 C          64.1018   85.8428   15.7765 C.3     1  UNL1        0.4512
     35 F          64.5254   85.4863   17.1706 F       1  UNL1       -0.1654
     36 F          62.7022   85.4032   16.0894 F       1  UNL1       -0.1654
     37 F          64.8675   86.0516   15.7017 F       1  UNL1       -0.1654
@<TRIPOS>BOND
     1    28    29    1
     2    29    22    1
     3    22    23   ar
     4    23    24   ar
     5    24    25   ar
     6    25    26   ar
     7    26     1    1
     8     1     2    2
     9     2     3    1
    10     3    30    1
    11    30    31    1
    12    30    32    1
    13    30    33    1
    14     3    34    1
    15    34    35    1
    16    34    36    1
    17    34    37    1
    18     3     4    1
    19     4     5   ar
    20     5     6   ar
    21     6    15    1
    22    15    16   ar
    23    16    17   ar
    24    17    18   ar
    25    18    19    1
    26    18    20   ar
    27    20    21   ar
    28     6     7   ar
    29     7     8    2
    30     7     9   ar
    31     9    10   ar
    32    10    11    2
    33     5    12    1
    34    26    27   ar
    35    27    22   ar
    36    12     1    1
    37    10     4   ar
    38    21    15   ar
    39     9    13    1
    40    12    14    1
@<TRIPOS>MOLECULE
*****
 37 40 0 0 0
SMALL
GASTEIGER

@<TRIPOS>ATOM
      1 C          63.6089   88.9423   13.9241 C.2     1  UNL1        0.3216
      2 N          62.6241   88.7720   12.8056 N.2     1  UNL1       -0.0517
      3 C          62.6610   89.6983   11.6264 C.3     1  UNL1        0.3732
      4 C          63.6827   90.7948   11.5657 C.ar    1  UNL1        0.1489
      5 C          64.6675   90.9651   12.6842 C.ar    1  UNL1        0.2152
      6 N          65.6892   92.0617   12.6235 N.ar    1  UNL1       -0.2288
      7 C          65.7261   92.9880   11.4443 C.ar    1  UNL1        0.3368
      8 O          66.7478   94.0845   11.3836 O.2     1  UNL1       -0.2460
      9 N          64.7413   92.8177   10.3257 N.ar    1  UNL1       -0.2741
     10 C          63.7196   91.7211   10.3864 C.ar    1  UNL1        0.2663
     11 O          62.7348   91.5509    9.2679 O.2     1  UNL1       -0.2671
     12 N          64.6306   90.0389   13.8634 N.pl3   1  UNL1       -0.1849
     13 H          64.7655   93.4256    9.5517 H       1  UNL1        0.1735
     14 H          65.2769   90.1506   14.5976 H       1  UNL1        0.2999
     15 C          66.6740   92.2320   13.7420 C.ar    1  UNL1        0.0714
     16 C          68.1149   91.8707   13.5342 C.ar    1  UNL1        0.0186
     17 C          69.0997   92.0410   14.6528 C.ar    1  UNL1        0.0129
     18 C          68.6436   92.5726   15.9792 C.ar    1  UNL1        0.0578
     19 CL         69.6284   92.7429   17.0978 Cl      1  UNL1       -0.0822
     20 C          67.2026   92.9339   16.1870 C.ar    1  UNL1        0.0129
     21 C          66.2179   92.7636   15.0685 C.ar    1  UNL1        0.0186
     22 C          63.9471   85.6562   16.1235 C.ar    1  UNL1        0.1390
     23 C          63.4982   86.1634   17.4620 C.ar    1  UNL1        0.0369
     24 C          63.0862   87.5969   17.6211 C.ar    1  UNL1        0.0034
     25 C          63.1231   88.5232   16.4418 C.ar    1  UNL1        0.0076
     26 C          63.5720   88.0160   15.1034 C.ar    1  UNL1        0.0851
     27 C          63.9840   86.5825   14.9443 C.ar    1  UNL1        0.0443
     28 C          63.7470   83.3820   14.8834 C.3     1  UNL1        0.2525
     29 O          64.3591   84.2227   15.9644 O.3     1  UNL1       -0.4714
     30 C          62.2995   90.3186   10.3094 C.3     1  UNL1        0.4512
     31 F          61.9380   90.9388    8.9922 F       1  UNL1       -0.1654
     32 F          61.1130   91.1795   10.6270 F       1  UNL1       -0.1654
     33 F          62.8736   89.9723    9.8780 F       1  UNL1       -0.1654
     34 C          61.5137   88.8172   11.2296 C.3     1  UNL1        0.4512
     35 F          60.3665   87.9360   10.8328 F       1  UNL1       -0.1654
     36 F          62.4727   87.8549   10.5937 F       1  UNL1       -0.1654
     37 F          60.9336   89.2677   11.5393 F       1  UNL1       -0.1654
@<TRIPOS>BOND
     1    28    29    1
     2    29    22    1
     3    22    23   ar
     4    23    24   ar
     5    24    25   ar
     6    25    26   ar
     7    26     1    1
     8     1     2    2
     9     2     3    1
    10     3    30    1
    11    30    31    1
    12    30    32    1
    13    30    33    1
    14     3    34    1
    15    34    35    1
    16    34    36    1
    17    34    37    1
    18     3     4    1
    19     4     5   ar
    20     5     6   ar
    21     6    15    1
    22    15    16   ar
    23    16    17   ar
    24    17    18   ar
    25    18    19    1
    26    18    20   ar
    27    20    21   ar
    28     6     7   ar
    29     7     8    2
    30     7     9   ar
    31     9    10   ar
    32    10    11    2
    33     5    12    1
    34    26    27   ar
    35    27    22   ar
    36    12     1    1
    37    10     4   ar
    38    21    15   ar
    39     9    13    1
    40    12    14    1
@<TRIPOS>MOLECULE
*****
 37 40 0 0 0
SMALL
GASTEIGER

@<TRIPOS>ATOM
      1 C          63.2514   86.0797   13.0297 C.2     1  UNL1        0.3216
      2 N          62.9457   85.2352   14.2310 N.2     1  UNL1       -0.0517
      3 C          62.9080   85.8576   15.5953 C.3     1  UNL1        0.3732
      4 C          63.1760   87.3244   15.7582 C.ar    1  UNL1        0.1489
      5 C          63.4817   88.1689   14.5568 C.ar    1  UNL1        0.2152
      6 N          63.7498   89.6357   14.7197 N.ar    1  UNL1       -0.2288
      7 C          63.7121   90.2581   16.0839 C.ar    1  UNL1        0.3368
      8 O          63.9801   91.7249   16.2468 O.2     1  UNL1       -0.2460
      9 N          63.4064   89.4136   17.2854 N.ar    1  UNL1       -0.2741
     10 C          63.1383   87.9467   17.1225 C.ar    1  UNL1        0.2663
     11 O          62.8326   87.1022   18.3239 O.2     1  UNL1       -0.2671
     12 N          63.5194   87.5466   13.1926 N.pl3   1  UNL1       -0.1849
     13 H          63.3816   89.8221   18.1808 H       1  UNL1        0.1735
     14 H          63.7201   88.1008   12.4040 H       1  UNL1        0.2999
     15 C          64.0555   90.4802   13.5183 C.ar    1  UNL1        0.0714
     16 C          65.2486   91.3893   13.5245 C.ar    1  UNL1        0.0186
     17 C          65.5543   92.2338   12.3231 C.ar    1  UNL1        0.0129
     18 C          64.6669   92.1693   11.1155 C.ar    1  UNL1        0.0578
     19 CL         64.9726   93.0138    9.9141 Cl      1  UNL1       -0.0822
     20 C          63.4737   91.2602   11.1093 C.ar    1  UNL1        0.0129
     21 C          63.1680   90.4157   12.3107 C.ar    1  UNL1        0.0186
     22 C          62.5972   85.4821    9.1612 C.ar    1  UNL1        0.1390
     23 C          63.3644   84.2128    8.9367 C.ar    1  UNL1        0.0369
     24 C          64.0940   83.5658   10.0765 C.ar    1  UNL1        0.0034
     25 C          64.0563   84.1882   11.4409 C.ar    1  UNL1        0.0076
     26 C          63.2891   85.4574   11.6653 C.ar    1  UNL1        0.0851
     27 C          62.5595   86.1043   10.5255 C.ar    1  UNL1        0.0443
     28 C          60.3680   86.1160    7.9868 C.3     1  UNL1        0.2525
     29 O          61.8676   86.1290    8.0214 O.3     1  UNL1       -0.4714
     30 C          62.7593   85.9860   17.0824 C.3     1  UNL1        0.4512
     31 F          62.6107   86.1144   18.5695 F       1  UNL1       -0.1654
     32 F          61.2961   86.2512   17.2794 F       1  UNL1       -0.1654
     33 F          63.5256   85.8670   17.2673 F       1  UNL1       -0.1654
     34 C          62.5883   84.4353   15.9489 C.3     1  UNL1        0.4512
     35 F          62.2687   83.0130   16.3026 F       1  UNL1       -0.1654
     36 F          64.0385   84.0760   15.8145 F       1  UNL1       -0.1654
     37 F          61.8027   84.5327   16.0428 F       1  UNL1       -0.1654
@<TRIPOS>BOND
     1    28    29    1
     2    29    22    1
     3    22    23   ar
     4    23    24   ar
     5    24    25   ar
     6    25    26   ar
     7    26     1    1
     8     1     2    2
     9     2     3    1
    10     3    30    1
    11    30    31    1
    12    30    32    1
    13    30    33    1
    14     3    34    1
    15    34    35    1
    16    34    36    1
    17    34    37    1
    18     3     4    1
    19     4     5   ar
    20     5     6   ar
    21     6    15    1
    22    15    16   ar
    23    16    17   ar
    24    17    18   ar
    25    18    19    1
    26    18    20   ar
    27    20    21   ar
    28     6     7   ar
    29     7     8    2
    30     7     9   ar
    31     9    10   ar
    32    10    11    2
    33     5    12    1
    34    26    27   ar
    35    27    22   ar
    36    12     1    1
    37    10     4   ar
    38    21    15   ar
    39     9    13    1
    40    12    14    1
@<TRIPOS>MOLECULE
*****
 37 40 0 0 0
SMALL
GASTEIGER

@<TRIPOS>ATOM
      1 C          62.3460   85.4386   11.4147 C.2     1  UNL1        0.3216
      2 N          62.4676   83.9706   11.1319 N.2     1  UNL1       -0.0517
      3 C          63.0712   83.0569   12.1569 C.3     1  UNL1        0.3732
      4 C          63.5531   83.6112   13.4648 C.ar    1  UNL1        0.1489
      5 C          63.4315   85.0792   13.7476 C.ar    1  UNL1        0.2152
      6 N          63.9135   85.6336   15.0554 N.ar    1  UNL1       -0.2288
      7 C          64.5171   84.7198   16.0805 C.ar    1  UNL1        0.3368
      8 O          64.9990   85.2742   17.3883 O.2     1  UNL1       -0.2460
      9 N          64.6387   83.2517   15.7977 N.ar    1  UNL1       -0.2741
     10 C          64.1567   82.6974   14.4899 C.ar    1  UNL1        0.2663
     11 O          64.2783   81.2293   14.2071 O.2     1  UNL1       -0.2671
     12 N          62.8280   85.9930   12.7225 N.pl3   1  UNL1       -0.1849
     13 H          65.0348   82.6520   16.4705 H       1  UNL1        0.1735
     14 H          62.7482   86.9565   12.9081 H       1  UNL1        0.2999
     15 C          63.7919   87.1016   15.3382 C.ar    1  UNL1        0.0714
     16 C          64.3569   88.1007   14.3725 C.ar    1  UNL1        0.0186
     17 C          64.2353   89.5689   14.6553 C.ar    1  UNL1        0.0129
     18 C          63.5487   90.0378   15.9038 C.ar    1  UNL1        0.0578
     19 CL         63.4271   91.5059   16.1866 Cl      1  UNL1       -0.0822
     20 C          62.9838   89.0387   16.8695 C.ar    1  UNL1        0.0129
     21 C          63.1053   87.5706   16.5867 C.ar    1  UNL1        0.0186
     22 C          60.8772   88.7040    9.7029 C.ar    1  UNL1        0.1390
     23 C          60.5354   88.1800    8.3395 C.ar    1  UNL1        0.0369
     24 C          60.7971   86.7423    8.0012 C.ar    1  UNL1        0.0034
     25 C          61.4007   85.8285    9.0263 C.ar    1  UNL1        0.0076
     26 C          61.7425   86.3524   10.3896 C.ar    1  UNL1        0.0851
     27 C          61.4807   87.7902   10.7279 C.ar    1  UNL1        0.0443
     28 C          59.7314   90.4901   11.2019 C.3     1  UNL1        0.2525
     29 O          60.6154   90.1417   10.0412 O.3     1  UNL1       -0.4714
     30 C          63.5672   81.7989   12.8061 C.3     1  UNL1        0.4512
     31 F          64.0633   80.5408   13.4553 F       1  UNL1       -0.1654
     32 F          62.3537   81.2391   13.4875 F       1  UNL1       -0.1654
     33 F          64.3243   81.8562   12.5632 F       1  UNL1       -0.1654
     34 C          62.7615   82.0656   11.0746 C.3     1  UNL1        0.4512
     35 F          62.4519   81.0743    9.9922 F       1  UNL1       -0.1654
     36 F          63.8432   82.6592   10.2215 F       1  UNL1       -0.1654
     37 F          62.1709   81.6883   11.4544 F       1  UNL1       -0.1654
@<TRIPOS>BOND
     1    28    29    1
     2    29    22    1
     3    22    23   ar
     4    23    24   ar
     5    24    25   ar
     6    25    26   ar
     7    26     1    1
     8     1     2    2
     9     2     3    1
    10     3    30    1
    11    30    31    1
    12    30    32    1
    13    30    33    1
    14     3    34    1
    15    34    35    1
    16    34    36    1
    17    34    37    1
    18     3     4    1
    19     4     5   ar
    20     5     6   ar
    21     6    15    1
    22    15    16   ar
    23    16    17   ar
    24    17    18   ar
    25    18    19    1
    26    18    20   ar
    27    20    21   ar
    28     6     7   ar
    29     7     8    2
    30     7     9   ar
    31     9    10   ar
    32    10    11    2
    33     5    12    1
    34    26    27   ar
    35    27    22   ar
    36    12     1    1
    37    10     4   ar
    38    21    15   ar
    39     9    13    1
    40    12    14    1
