@<TRIPOS>MOLECULE
*****
 31 34 0 0 0
SMALL
GASTEIGER

@<TRIPOS>ATOM
      1 N          62.4919   87.0914   11.9834 N.ar    1  UNL1       -0.2644
      2 C          62.1821   87.8906   10.7525 C.ar    1  UNL1        0.2037
      3 N          62.6913   89.2955   10.6225 N.ar    1  UNL1       -0.2140
      4 C          63.5105   89.9013   11.7235 C.ar    1  UNL1        0.0993
      5 C          64.0197   91.3061   11.5935 C.ar    1  UNL1        0.0763
      6 CL         63.7098   92.1054   10.3626 Cl      1  UNL1       -0.0806
      7 C          64.8388   91.9118   12.6945 C.ar    1  UNL1        0.0243
      8 C          65.1487   91.1126   13.9255 C.ar    1  UNL1        0.0588
      9 CL         65.9678   91.7183   15.0265 Cl      1  UNL1       -0.0822
     10 C          64.6394   89.7077   14.0554 C.ar    1  UNL1        0.0177
     11 C          63.8203   89.1021   12.9545 C.ar    1  UNL1        0.0756
     12 C          63.3110   87.6971   13.0844 C.ar    1  UNL1        0.2646
     13 O          63.6209   86.8979   14.3154 O.2     1  UNL1       -0.2668
     14 N          61.3629   87.2849    9.6515 N.pl3   1  UNL1       -0.2781
     15 C          59.9071   87.6238    9.5263 C.3     1  UNL1        0.0937
     16 C          59.0880   87.0181    8.4254 C.3     1  UNL1        0.0229
     17 C          59.7248   86.0734    7.4496 C.3     1  UNL1        0.0190
     18 C          61.1806   85.7345    7.5747 C.3     1  UNL1        0.0710
     19 N          61.8173   84.7899    6.5989 N.3     1  UNL1       -0.3208
     20 C          61.9996   86.3403    8.6757 C.3     1  UNL1        0.1089
     21 H          61.1196   84.4770    5.9239 H       1  UNL1        0.1189
     22 H          62.1908   83.9839    7.1002 H       1  UNL1        0.1189
     23 C          61.9826   85.6865   12.1134 C.3     1  UNL1        0.1391
     24 C          63.3058   83.5961   12.9069 C.ar    1  UNL1        0.0663
     25 C          64.2109   82.4392   12.6032 C.ar    1  UNL1        0.0100
     26 C          64.6980   82.2157   11.2022 C.ar    1  UNL1        0.0007
     27 C          64.2800   83.1491   10.1049 C.ar    1  UNL1       -0.0002
     28 C          63.3749   84.3060   10.4086 C.ar    1  UNL1       -0.0017
     29 C          62.8878   84.5295   11.8097 C.ar    1  UNL1        0.0102
     30 N          62.3316   84.0433   15.7089 N.1     1  UNL1       -0.1908
     31 C          62.8187   83.8197   14.3078 C.1     1  UNL1        0.1002
@<TRIPOS>BOND
     1    30    31    3
     2    31    24    1
     3    24    25   ar
     4    25    26   ar
     5    26    27   ar
     6    27    28   ar
     7    28    29   ar
     8    29    23    1
     9    23     1    1
    10     1     2   ar
    11     2    14    1
    12    14    15    1
    13    15    16    1
    14    16    17    1
    15    17    18    1
    16    18    19    1
    17    18    20    1
    18     2     3   ar
    19     3     4   ar
    20     4     5   ar
    21     5     6    1
    22     5     7   ar
    23     7     8   ar
    24     8     9    1
    25     8    10   ar
    26    10    11   ar
    27    11    12   ar
    28    12    13    2
    29    29    24   ar
    30    12     1   ar
    31    20    14    1
    32    11     4   ar
    33    19    21    1
    34    19    22    1
@<TRIPOS>MOLECULE
*****
 31 34 0 0 0
SMALL
GASTEIGER

@<TRIPOS>ATOM
      1 N          63.2179   89.9883   12.7588 N.ar    1  UNL1       -0.2644
      2 C          64.1679   89.7788   13.9005 C.ar    1  UNL1        0.2037
      3 N          65.4128   90.6093   14.0024 N.ar    1  UNL1       -0.2140
      4 C          65.7078   91.6494   12.9625 C.ar    1  UNL1        0.0993
      5 C          66.9527   92.4799   13.0644 C.ar    1  UNL1        0.0763
      6 CL         67.9027   92.2704   14.2062 Cl      1  UNL1       -0.0806
      7 C          67.2476   93.5199   12.0245 C.ar    1  UNL1        0.0243
      8 C          66.2976   93.7294   10.8828 C.ar    1  UNL1        0.0588
      9 CL         66.5926   94.7694    9.8429 Cl      1  UNL1       -0.0822
     10 C          65.0527   92.8989   10.7809 C.ar    1  UNL1        0.0177
     11 C          64.7578   91.8589   11.8208 C.ar    1  UNL1        0.0756
     12 C          63.5128   91.0283   11.7189 C.ar    1  UNL1        0.2646
     13 O          62.5628   91.2378   10.5771 O.2     1  UNL1       -0.2668
     14 N          63.8730   88.7387   14.9404 N.pl3   1  UNL1       -0.2781
     15 C          63.1772   89.1254   16.2117 C.3     1  UNL1        0.0937
     16 C          62.8822   88.0854   17.2516 C.3     1  UNL1        0.0229
     17 C          63.2831   86.6586   17.0201 C.3     1  UNL1        0.0190
     18 C          63.9789   86.2719   15.7488 C.3     1  UNL1        0.0710
     19 N          64.3798   84.8451   15.5173 N.3     1  UNL1       -0.3208
     20 C          64.2738   87.3119   14.7090 C.3     1  UNL1        0.1089
     21 H          64.1039   84.2799   16.3203 H       1  UNL1        0.1189
     22 H          65.3910   84.7916   15.3951 H       1  UNL1        0.1189
     23 C          61.9730   89.1577   12.6569 C.3     1  UNL1        0.1391
     24 C          60.4717   88.9216   10.5497 C.ar    1  UNL1        0.0663
     25 C          60.1380   88.2250    9.2638 C.ar    1  UNL1        0.0100
     26 C          60.9719   87.0679    8.7994 C.ar    1  UNL1        0.0007
     27 C          62.1395   86.6073    9.6208 C.ar    1  UNL1       -0.0002
     28 C          62.4732   87.3039   10.9067 C.ar    1  UNL1       -0.0017
     29 C          61.6393   88.4611   11.3711 C.ar    1  UNL1        0.0102
     30 N          58.8040   91.2359   11.4785 N.1     1  UNL1       -0.1908
     31 C          59.6379   90.0787   11.0141 C.1     1  UNL1        0.1002
@<TRIPOS>BOND
     1    30    31    3
     2    31    24    1
     3    24    25   ar
     4    25    26   ar
     5    26    27   ar
     6    27    28   ar
     7    28    29   ar
     8    29    23    1
     9    23     1    1
    10     1     2   ar
    11     2    14    1
    12    14    15    1
    13    15    16    1
    14    16    17    1
    15    17    18    1
    16    18    19    1
    17    18    20    1
    18     2     3   ar
    19     3     4   ar
    20     4     5   ar
    21     5     6    1
    22     5     7   ar
    23     7     8   ar
    24     8     9    1
    25     8    10   ar
    26    10    11   ar
    27    11    12   ar
    28    12    13    2
    29    29    24   ar
    30    12     1   ar
    31    20    14    1
    32    11     4   ar
    33    19    21    1
    34    19    22    1
@<TRIPOS>MOLECULE
*****
 31 34 0 0 0
SMALL
GASTEIGER

@<TRIPOS>ATOM
      1 N          63.8374   89.5612   12.9089 N.ar    1  UNL1       -0.2644
      2 C          64.3098   89.5312   14.3323 C.ar    1  UNL1        0.2037
      3 N          65.1354   90.6610   14.8725 N.ar    1  UNL1       -0.2140
      4 C          65.4885   91.8210   13.9893 C.ar    1  UNL1        0.0993
      5 C          66.3141   92.9508   14.5295 C.ar    1  UNL1        0.0763
      6 CL         66.7865   92.9208   15.9528 Cl      1  UNL1       -0.0806
      7 C          66.6672   94.1107   13.6463 C.ar    1  UNL1        0.0243
      8 C          66.1948   94.1407   12.2230 C.ar    1  UNL1        0.0588
      9 CL         66.5479   95.3006   11.3398 Cl      1  UNL1       -0.0822
     10 C          65.3692   93.0108   11.6828 C.ar    1  UNL1        0.0177
     11 C          65.0161   91.8510   12.5660 C.ar    1  UNL1        0.0756
     12 C          64.1905   90.7210   12.0258 C.ar    1  UNL1        0.2646
     13 O          63.7181   90.7510   10.6024 O.2     1  UNL1       -0.2668
     14 N          63.9567   88.3712   15.2154 N.pl3   1  UNL1       -0.2781
     15 C          63.1540   88.5953   16.4626 C.3     1  UNL1        0.0937
     16 C          62.8009   87.4354   17.3457 C.3     1  UNL1        0.0229
     17 C          63.2504   86.0514   16.9816 C.3     1  UNL1        0.0190
     18 C          64.0531   85.8274   15.7344 C.3     1  UNL1        0.0710
     19 N          64.5027   84.4434   15.3704 N.3     1  UNL1       -0.3208
     20 C          64.4063   86.9873   14.8514 C.3     1  UNL1        0.1089
     21 H          64.1768   83.7833   16.0764 H       1  UNL1        0.1189
     22 H          65.5214   84.4177   15.3254 H       1  UNL1        0.1189
     23 C          63.0118   88.4312   12.3688 C.3     1  UNL1        0.1391
     24 C          61.5168   87.6777   10.3820 C.ar    1  UNL1        0.0663
     25 C          60.4062   87.9567    9.4131 C.ar    1  UNL1        0.0100
     26 C          59.6800   89.2683    9.4621 C.ar    1  UNL1        0.0007
     27 C          60.0644   90.3009   10.4800 C.ar    1  UNL1       -0.0002
     28 C          61.1750   90.0219   11.4489 C.ar    1  UNL1       -0.0017
     29 C          61.9012   88.7102   11.3999 C.ar    1  UNL1        0.0102
     30 N          62.9693   85.0546   10.2840 N.1     1  UNL1       -0.1908
     31 C          62.2430   86.3662   10.3331 C.1     1  UNL1        0.1002
@<TRIPOS>BOND
     1    30    31    3
     2    31    24    1
     3    24    25   ar
     4    25    26   ar
     5    26    27   ar
     6    27    28   ar
     7    28    29   ar
     8    29    23    1
     9    23     1    1
    10     1     2   ar
    11     2    14    1
    12    14    15    1
    13    15    16    1
    14    16    17    1
    15    17    18    1
    16    18    19    1
    17    18    20    1
    18     2     3   ar
    19     3     4   ar
    20     4     5   ar
    21     5     6    1
    22     5     7   ar
    23     7     8   ar
    24     8     9    1
    25     8    10   ar
    26    10    11   ar
    27    11    12   ar
    28    12    13    2
    29    29    24   ar
    30    12     1   ar
    31    20    14    1
    32    11     4   ar
    33    19    21    1
    34    19    22    1
@<TRIPOS>MOLECULE
*****
 31 34 0 0 0
SMALL
GASTEIGER

@<TRIPOS>ATOM
      1 N          62.6563   86.6617   11.8364 N.ar    1  UNL1       -0.2644
      2 C          62.3868   87.4414   10.5836 C.ar    1  UNL1        0.2037
      3 N          62.7605   88.8921   10.5080 N.ar    1  UNL1       -0.2140
      4 C          63.4037   89.5633   11.6853 C.ar    1  UNL1        0.0993
      5 C          63.7773   91.0140   11.6097 C.ar    1  UNL1        0.0763
      6 CL         63.5078   91.7936   10.3569 Cl      1  UNL1       -0.0806
      7 C          64.4205   91.6851   12.7870 C.ar    1  UNL1        0.0243
      8 C          64.6900   90.9054   14.0398 C.ar    1  UNL1        0.0588
      9 CL         65.3332   91.5766   15.2170 Cl      1  UNL1       -0.0822
     10 C          64.3163   89.4547   14.1153 C.ar    1  UNL1        0.0177
     11 C          63.6732   88.7836   12.9381 C.ar    1  UNL1        0.0756
     12 C          63.2995   87.3328   13.0136 C.ar    1  UNL1        0.2646
     13 O          63.5690   86.5532   14.2664 O.2     1  UNL1       -0.2668
     14 N          61.7436   86.7702    9.4063 N.pl3   1  UNL1       -0.2781
     15 C          62.5423   85.8352    8.5473 C.3     1  UNL1        0.0937
     16 C          61.8991   85.1641    7.3701 C.3     1  UNL1        0.0229
     17 C          60.4572   85.4280    7.0519 C.3     1  UNL1        0.0190
     18 C          59.6585   86.3630    7.9109 C.3     1  UNL1        0.0710
     19 N          58.2166   86.6268    7.5926 N.3     1  UNL1       -0.3208
     20 C          60.3017   87.0341    9.0881 C.3     1  UNL1        0.1089
     21 H          57.9473   86.0921    6.7668 H       1  UNL1        0.1189
     22 H          58.0850   87.6219    7.4112 H       1  UNL1        0.1189
     23 C          62.2827   85.2109   11.9119 C.3     1  UNL1        0.1391
     24 C          63.8178   83.3092   12.7932 C.ar    1  UNL1        0.0663
     25 C          64.3184   82.4638   13.9266 C.ar    1  UNL1        0.0100
     26 C          63.7844   82.6749   15.3124 C.ar    1  UNL1        0.0007
     27 C          62.7498   83.7313   15.5647 C.ar    1  UNL1       -0.0002
     28 C          62.2492   84.5766   14.4312 C.ar    1  UNL1       -0.0017
     29 C          62.7832   84.3656   13.0454 C.ar    1  UNL1        0.0102
     30 N          64.8858   82.8872   10.0216 N.1     1  UNL1       -0.1908
     31 C          64.3518   83.0982   11.4074 C.1     1  UNL1        0.1002
@<TRIPOS>BOND
     1    30    31    3
     2    31    24    1
     3    24    25   ar
     4    25    26   ar
     5    26    27   ar
     6    27    28   ar
     7    28    29   ar
     8    29    23    1
     9    23     1    1
    10     1     2   ar
    11     2    14    1
    12    14    15    1
    13    15    16    1
    14    16    17    1
    15    17    18    1
    16    18    19    1
    17    18    20    1
    18     2     3   ar
    19     3     4   ar
    20     4     5   ar
    21     5     6    1
    22     5     7   ar
    23     7     8   ar
    24     8     9    1
    25     8    10   ar
    26    10    11   ar
    27    11    12   ar
    28    12    13    2
    29    29    24   ar
    30    12     1   ar
    31    20    14    1
    32    11     4   ar
    33    19    21    1
    34    19    22    1
@<TRIPOS>MOLECULE
*****
 31 34 0 0 0
SMALL
GASTEIGER

@<TRIPOS>ATOM
      1 N          62.0371   89.0199   11.7100 N.ar    1  UNL1       -0.2644
      2 C          62.3319   87.5571   11.5571 C.ar    1  UNL1        0.2037
      3 N          61.8288   86.8122   10.3563 N.ar    1  UNL1       -0.2140
      4 C          61.0310   87.5300    9.3083 C.ar    1  UNL1        0.0993
      5 C          60.5279   86.7851    8.1075 C.ar    1  UNL1        0.0763
      6 CL         60.8227   85.3223    7.9546 Cl      1  UNL1       -0.0806
      7 C          59.7301   87.5029    7.0596 C.ar    1  UNL1        0.0243
      8 C          59.4353   88.9657    7.2125 C.ar    1  UNL1        0.0588
      9 CL         58.6375   89.6835    6.1645 Cl      1  UNL1       -0.0822
     10 C          59.9384   89.7106    8.4133 C.ar    1  UNL1        0.0177
     11 C          60.7362   88.9928    9.4612 C.ar    1  UNL1        0.0756
     12 C          61.2393   89.7377   10.6621 C.ar    1  UNL1        0.2646
     13 O          60.9445   91.2005   10.8150 O.2     1  UNL1       -0.2668
     14 N          63.1298   86.8393   12.6051 N.pl3   1  UNL1       -0.2781
     15 C          63.8450   87.6191   13.6682 C.3     1  UNL1        0.0937
     16 C          64.6428   86.9012   14.7161 C.3     1  UNL1        0.0229
     17 C          64.7254   85.4036   14.7009 C.3     1  UNL1        0.0190
     18 C          64.0102   84.6238   13.6377 C.3     1  UNL1        0.0710
     19 N          64.0928   83.1261   13.6225 N.3     1  UNL1       -0.3208
     20 C          63.2124   85.3416   12.5898 C.3     1  UNL1        0.1089
     21 H          64.6716   82.8096   14.4004 H       1  UNL1        0.1189
     22 H          64.5070   82.8174   12.7429 H       1  UNL1        0.1189
     23 C          62.5402   89.7648   12.9109 C.3     1  UNL1        0.1391
     24 C          64.3473   91.2877   13.9904 C.ar    1  UNL1        0.0663
     25 C          65.4771   92.2640   13.8482 C.ar    1  UNL1        0.0100
     26 C          65.9297   92.6939   12.4843 C.ar    1  UNL1        0.0007
     27 C          65.2525   92.1473   11.2625 C.ar    1  UNL1       -0.0002
     28 C          64.1227   91.1710   11.4047 C.ar    1  UNL1       -0.0017
     29 C          63.6701   90.7412   12.7687 C.ar    1  UNL1        0.0102
     30 N          63.4419   90.4280   16.7183 N.1     1  UNL1       -0.1908
     31 C          63.8946   90.8579   15.3543 C.1     1  UNL1        0.1002
@<TRIPOS>BOND
     1    30    31    3
     2    31    24    1
     3    24    25   ar
     4    25    26   ar
     5    26    27   ar
     6    27    28   ar
     7    28    29   ar
     8    29    23    1
     9    23     1    1
    10     1     2   ar
    11     2    14    1
    12    14    15    1
    13    15    16    1
    14    16    17    1
    15    17    18    1
    16    18    19    1
    17    18    20    1
    18     2     3   ar
    19     3     4   ar
    20     4     5   ar
    21     5     6    1
    22     5     7   ar
    23     7     8   ar
    24     8     9    1
    25     8    10   ar
    26    10    11   ar
    27    11    12   ar
    28    12    13    2
    29    29    24   ar
    30    12     1   ar
    31    20    14    1
    32    11     4   ar
    33    19    21    1
    34    19    22    1
@<TRIPOS>MOLECULE
*****
 31 34 0 0 0
SMALL
GASTEIGER

@<TRIPOS>ATOM
      1 N          63.3372   89.2243   12.9003 N.ar    1  UNL1       -0.2644
      2 C          64.2499   89.0392   14.0762 C.ar    1  UNL1        0.2037
      3 N          65.3039   90.0634   14.3762 N.ar    1  UNL1       -0.2140
      4 C          65.4453   91.2728   13.5001 C.ar    1  UNL1        0.0993
      5 C          66.4993   92.2971   13.8000 C.ar    1  UNL1        0.0763
      6 CL         67.4119   92.1119   14.9760 Cl      1  UNL1       -0.0806
      7 C          66.6407   93.5064   12.9240 C.ar    1  UNL1        0.0243
      8 C          65.7280   93.6915   11.7481 C.ar    1  UNL1        0.0588
      9 CL         65.8694   94.9010   10.8721 Cl      1  UNL1       -0.0822
     10 C          64.6740   92.6673   11.4482 C.ar    1  UNL1        0.0177
     11 C          64.5327   91.4580   12.3242 C.ar    1  UNL1        0.0756
     12 C          63.4786   90.4337   12.0243 C.ar    1  UNL1        0.2646
     13 O          62.5660   90.6188   10.8484 O.2     1  UNL1       -0.2668
     14 N          64.1085   87.8298   14.9523 N.pl3   1  UNL1       -0.2781
     15 C          64.8605   86.5741   14.6243 C.3     1  UNL1        0.0937
     16 C          64.7191   85.3647   15.5004 C.3     1  UNL1        0.0229
     17 C          63.8256   85.4111   16.7043 C.3     1  UNL1        0.0190
     18 C          63.0735   86.6668   17.0322 C.3     1  UNL1        0.0710
     19 N          62.1800   86.7131   18.2362 N.3     1  UNL1       -0.3208
     20 C          63.2150   87.8761   16.1562 C.3     1  UNL1        0.1089
     21 H          62.2035   85.8112   18.7120 H       1  UNL1        0.1189
     22 H          61.2248   86.9181   17.9430 H       1  UNL1        0.1189
     23 C          62.2832   88.2000   12.6004 C.3     1  UNL1        0.1391
     24 C          62.3610   85.8396   11.5176 C.ar    1  UNL1        0.0663
     25 C          62.4828   84.9725   10.2998 C.ar    1  UNL1        0.0100
     26 C          62.6488   85.5985    8.9469 C.ar    1  UNL1        0.0007
     27 C          62.6930   87.0918    8.8117 C.ar    1  UNL1       -0.0002
     28 C          62.5711   87.9590   10.0296 C.ar    1  UNL1       -0.0017
     29 C          62.4051   87.3329   11.3826 C.ar    1  UNL1        0.0102
     30 N          62.0290   84.5875   14.2236 N.1     1  UNL1       -0.1908
     31 C          62.1950   85.2136   12.8706 C.1     1  UNL1        0.1002
@<TRIPOS>BOND
     1    30    31    3
     2    31    24    1
     3    24    25   ar
     4    25    26   ar
     5    26    27   ar
     6    27    28   ar
     7    28    29   ar
     8    29    23    1
     9    23     1    1
    10     1     2   ar
    11     2    14    1
    12    14    15    1
    13    15    16    1
    14    16    17    1
    15    17    18    1
    16    18    19    1
    17    18    20    1
    18     2     3   ar
    19     3     4   ar
    20     4     5   ar
    21     5     6    1
    22     5     7   ar
    23     7     8   ar
    24     8     9    1
    25     8    10   ar
    26    10    11   ar
    27    11    12   ar
    28    12    13    2
    29    29    24   ar
    30    12     1   ar
    31    20    14    1
    32    11     4   ar
    33    19    21    1
    34    19    22    1
@<TRIPOS>MOLECULE
*****
 31 34 0 0 0
SMALL
GASTEIGER

@<TRIPOS>ATOM
      1 N          60.5981   95.3740   -1.4648 N.ar    1  UNL1       -0.2644
      2 C          60.8000   94.9520   -2.8900 C.ar    1  UNL1        0.2037
      3 N          59.6140   94.6672   -3.7630 N.ar    1  UNL1       -0.2140
      4 C          58.2260   94.8044   -3.2109 C.ar    1  UNL1        0.0993
      5 C          57.0400   94.5197   -4.0839 C.ar    1  UNL1        0.0763
      6 CL         57.2419   94.0977   -5.5091 Cl      1  UNL1       -0.0806
      7 C          55.6521   94.6568   -3.5318 C.ar    1  UNL1        0.0243
      8 C          55.4502   95.0788   -2.1066 C.ar    1  UNL1        0.0588
      9 CL         54.0623   95.2160   -1.5544 Cl      1  UNL1       -0.0822
     10 C          56.6362   95.3636   -1.2335 C.ar    1  UNL1        0.0177
     11 C          58.0241   95.2264   -1.7857 C.ar    1  UNL1        0.0756
     12 C          59.2102   95.5112   -0.9126 C.ar    1  UNL1        0.2646
     13 O          59.0083   95.9332    0.5126 O.2     1  UNL1       -0.2668
     14 N          62.1880   94.8148   -3.4421 N.pl3   1  UNL1       -0.2781
     15 C          62.8684   95.9985   -4.0632 C.3     1  UNL1        0.0937
     16 C          64.2563   95.8613   -4.6153 C.3     1  UNL1        0.0229
     17 C          64.9638   94.5404   -4.5463 C.3     1  UNL1        0.0190
     18 C          64.2833   93.3567   -3.9251 C.3     1  UNL1        0.0710
     19 N          64.9908   92.0358   -3.8561 N.3     1  UNL1       -0.3208
     20 C          62.8954   93.4940   -3.3730 C.3     1  UNL1        0.1089
     21 H          65.9167   92.1238   -4.2747 H       1  UNL1        0.1189
     22 H          64.4526   91.3349   -4.3653 H       1  UNL1        0.1189
     23 C          61.7842   95.6588   -0.5917 C.3     1  UNL1        0.1391
     24 C          63.8608   94.3651    0.2825 C.ar    1  UNL1        0.0663
     25 C          64.4514   93.2735    1.1248 C.ar    1  UNL1        0.0100
     26 C          63.5560   92.3838    1.9352 C.ar    1  UNL1        0.0007
     27 C          62.0700   92.5857    1.9033 C.ar    1  UNL1       -0.0002
     28 C          61.4794   93.6774    1.0610 C.ar    1  UNL1       -0.0017
     29 C          62.3748   94.5671    0.2506 C.ar    1  UNL1        0.0102
     30 N          65.6516   96.1446   -1.3382 N.1     1  UNL1       -0.1908
     31 C          64.7561   95.2548   -0.5278 C.1     1  UNL1        0.1002
@<TRIPOS>BOND
     1    30    31    3
     2    31    24    1
     3    24    25   ar
     4    25    26   ar
     5    26    27   ar
     6    27    28   ar
     7    28    29   ar
     8    29    23    1
     9    23     1    1
    10     1     2   ar
    11     2    14    1
    12    14    15    1
    13    15    16    1
    14    16    17    1
    15    17    18    1
    16    18    19    1
    17    18    20    1
    18     2     3   ar
    19     3     4   ar
    20     4     5   ar
    21     5     6    1
    22     5     7   ar
    23     7     8   ar
    24     8     9    1
    25     8    10   ar
    26    10    11   ar
    27    11    12   ar
    28    12    13    2
    29    29    24   ar
    30    12     1   ar
    31    20    14    1
    32    11     4   ar
    33    19    21    1
    34    19    22    1
