@<TRIPOS>MOLECULE
*****
 38 42 0 0 0
SMALL
GASTEIGER

@<TRIPOS>ATOM
      1 N          60.6465   88.4166   10.6086 N.3     1  UNL1       -0.1487
      2 C          60.5869   88.0253    9.1617 C.3     1  UNL1        0.0849
      3 C          59.6640   89.1758    8.8886 C.3     1  UNL1        0.0206
      4 C          59.6044   88.7845    7.4418 C.3     1  UNL1        0.0035
      5 C          60.5273   87.6340    7.7149 C.3     1  UNL1        0.0206
      6 C          61.5098   86.8749    9.4349 C.ar    1  UNL1       -0.0077
      7 C          62.3220   86.2840    8.3207 C.ar    1  UNL1       -0.0030
      8 C          63.2449   85.1335    8.5940 C.ar    1  UNL1       -0.0003
      9 C          63.3557   84.5739    9.9812 C.ar    1  UNL1       -0.0000
     10 C          62.5435   85.1648   11.0953 C.ar    1  UNL1       -0.0002
     11 C          61.6205   86.3152   10.8222 C.ar    1  UNL1       -0.0030
     12 C          62.6542   84.6051   12.4826 C.ar    1  UNL1        0.0017
     13 C          63.2134   85.4490   13.5894 C.ar    1  UNL1        0.0114
     14 C          63.3241   84.8893   14.9766 C.ar    1  UNL1        0.0585
     15 CL         63.8833   85.7333   16.0835 Cl      1  UNL1       -0.0822
     16 C          62.8756   83.4857   15.2571 C.ar    1  UNL1        0.0228
     17 C          62.3165   82.6417   14.1503 C.ar    1  UNL1        0.0585
     18 CL         61.8680   81.2381   14.4308 Cl      1  UNL1       -0.0822
     19 C          62.2057   83.2014   12.7631 C.ar    1  UNL1        0.0114
     20 S          61.7584   89.2935   11.1032 S.O2    1  UNL1        0.0638
     21 O          61.7248   90.0624    9.8157 O.2     1  UNL1       -0.1528
     22 O          61.7920   88.5246   12.3907 O.2     1  UNL1       -0.1528
     23 C          67.5762   93.7855   14.0157 C.3     1  UNL1        0.0436
     24 C          66.6157   92.7514   14.5237 C.3     1  UNL1        0.1336
     25 C          67.3588   93.0608   15.7895 C.3     1  UNL1        0.0436
     26 C          65.9132   91.8248   15.4712 C.3     1  UNL1        0.0448
     27 C          64.8013   90.9479   14.9767 C.3     1  UNL1        0.0330
     28 C          64.3918   90.9976   13.5345 C.ar    1  UNL1        0.0132
     29 C          63.2798   90.1207   13.0399 C.ar    1  UNL1        0.0186
     30 C          62.8703   90.1704   11.5978 C.ar    1  UNL1        0.1221
     31 C          63.5728   91.0971   10.6502 C.ar    1  UNL1        0.0230
     32 C          64.6847   91.9740   11.1448 C.ar    1  UNL1        0.0379
     33 C          65.0942   91.9242   12.5870 C.ar    1  UNL1        0.1342
     34 O          66.2062   92.8011   13.0816 O.3     1  UNL1       -0.4829
     35 C          59.5941   87.9310   11.5608 C.3     1  UNL1        0.1374
     36 C          58.8575   88.9092   12.4270 C.2     1  UNL1        0.0683
     37 O          58.7038   90.3345   11.9854 O.co2   1  UNL1       -0.5477
     38 O          58.2744   88.4622   13.7348 O.co2   1  UNL1       -0.5477
@<TRIPOS>UNITY_ATOM_ATTR
37 1
charge -1
@<TRIPOS>BOND
     1    23    24    1
     2    24    25    1
     3    24    26    1
     4    26    27    1
     5    27    28    1
     6    28    29   ar
     7    29    30   ar
     8    30    20    1
     9    20    21    2
    10    20    22    2
    11    20     1    1
    12     1    35    1
    13    35    36    1
    14    36    37   ar
    15    36    38   ar
    16     1     2    1
    17     2     6    1
    18     6     7   ar
    19     7     8   ar
    20     8     9   ar
    21     9    10   ar
    22    10    12    1
    23    12    13   ar
    24    13    14   ar
    25    14    15    1
    26    14    16   ar
    27    16    17   ar
    28    17    18    1
    29    17    19   ar
    30    10    11   ar
    31     2     3    1
    32     3     4    1
    33     4     5    1
    34    30    31   ar
    35    31    32   ar
    36    32    33   ar
    37    33    34    1
    38    34    24    1
    39    33    28   ar
    40     5     2    1
    41    11     6   ar
    42    19    12   ar
@<TRIPOS>MOLECULE
*****
 38 42 0 0 0
SMALL
GASTEIGER

@<TRIPOS>ATOM
      1 N          60.6491   88.4082   10.6148 N.3     1  UNL1       -0.1487
      2 C          60.5855   88.0149    9.1686 C.3     1  UNL1        0.0849
      3 C          59.6629   89.1658    8.8962 C.3     1  UNL1        0.0206
      4 C          59.5994   88.7726    7.4501 C.3     1  UNL1        0.0035
      5 C          60.5220   87.6217    7.7225 C.3     1  UNL1        0.0206
      6 C          61.5081   86.8641    9.4410 C.ar    1  UNL1       -0.0077
      7 C          62.3230   86.2762    8.3272 C.ar    1  UNL1       -0.0030
      8 C          63.2456   85.1252    8.5997 C.ar    1  UNL1       -0.0003
      9 C          63.3534   84.5623    9.9858 C.ar    1  UNL1       -0.0000
     10 C          62.5386   85.1502   11.0996 C.ar    1  UNL1       -0.0002
     11 C          61.6160   86.3011   10.8272 C.ar    1  UNL1       -0.0030
     12 C          62.6464   84.5872   12.4858 C.ar    1  UNL1        0.0017
     13 C          62.1998   83.1820   12.7614 C.ar    1  UNL1        0.0114
     14 C          62.3077   82.6191   14.1475 C.ar    1  UNL1        0.0585
     15 CL         61.8610   81.2139   14.4232 Cl      1  UNL1       -0.0822
     16 C          62.8622   83.4613   15.2580 C.ar    1  UNL1        0.0228
     17 C          63.3088   84.8665   14.9824 C.ar    1  UNL1        0.0585
     18 CL         63.8633   85.7087   16.0929 Cl      1  UNL1       -0.0822
     19 C          63.2009   85.4294   13.5963 C.ar    1  UNL1        0.0114
     20 S          61.7611   89.2877   11.1046 S.O2    1  UNL1        0.0638
     21 O          61.8108   88.5108   12.3868 O.2     1  UNL1       -0.1528
     22 O          61.7114   90.0646    9.8225 O.2     1  UNL1       -0.1528
     23 C          67.5815   93.7926   13.9920 C.3     1  UNL1        0.0436
     24 C          66.6288   92.7527   14.5030 C.3     1  UNL1        0.1336
     25 C          67.3797   93.0605   15.7646 C.3     1  UNL1        0.0436
     26 C          65.9369   91.8198   15.4521 C.3     1  UNL1        0.0448
     27 C          64.8250   90.9402   14.9623 C.3     1  UNL1        0.0330
     28 C          64.4050   90.9935   13.5233 C.ar    1  UNL1        0.0132
     29 C          63.2930   90.1140   13.0335 C.ar    1  UNL1        0.0186
     30 C          62.8730   90.1673   11.5945 C.ar    1  UNL1        0.1221
     31 C          63.5649   91.1003   10.6453 C.ar    1  UNL1        0.0230
     32 C          64.6768   91.9799   11.1351 C.ar    1  UNL1        0.0379
     33 C          65.0969   91.9265   12.5742 C.ar    1  UNL1        0.1342
     34 O          66.2088   92.8061   13.0640 O.3     1  UNL1       -0.4829
     35 C          59.6008   87.9218   11.5711 C.3     1  UNL1        0.1374
     36 C          58.8627   88.9001   12.4358 C.2     1  UNL1        0.0683
     37 O          58.2894   88.4567   13.7491 O.co2   1  UNL1       -0.5477
     38 O          58.6978   90.3221   11.9874 O.co2   1  UNL1       -0.5477
@<TRIPOS>UNITY_ATOM_ATTR
37 1
charge -1
@<TRIPOS>BOND
     1    23    24    1
     2    24    25    1
     3    24    26    1
     4    26    27    1
     5    27    28    1
     6    28    29   ar
     7    29    30   ar
     8    30    20    1
     9    20    21    2
    10    20    22    2
    11    20     1    1
    12     1    35    1
    13    35    36    1
    14    36    37   ar
    15    36    38   ar
    16     1     2    1
    17     2     6    1
    18     6     7   ar
    19     7     8   ar
    20     8     9   ar
    21     9    10   ar
    22    10    12    1
    23    12    13   ar
    24    13    14   ar
    25    14    15    1
    26    14    16   ar
    27    16    17   ar
    28    17    18    1
    29    17    19   ar
    30    10    11   ar
    31     2     3    1
    32     3     4    1
    33     4     5    1
    34    30    31   ar
    35    31    32   ar
    36    32    33   ar
    37    33    34    1
    38    34    24    1
    39    33    28   ar
    40     5     2    1
    41    11     6   ar
    42    19    12   ar
@<TRIPOS>MOLECULE
*****
 38 42 0 0 0
SMALL
GASTEIGER

@<TRIPOS>ATOM
      1 N          60.7987   88.5572   11.0744 N.3     1  UNL1       -0.1487
      2 C          60.8915   88.4500    9.5811 C.3     1  UNL1        0.0849
      3 C          60.1397   89.7404    9.4417 C.3     1  UNL1        0.0206
      4 C          60.2325   89.6332    7.9484 C.3     1  UNL1        0.0035
      5 C          60.9844   88.3428    8.0878 C.3     1  UNL1        0.0206
      6 C          61.6434   87.1596    9.7205 C.ar    1  UNL1       -0.0077
      7 C          62.2496   86.5104    8.5117 C.ar    1  UNL1       -0.0030
      8 C          63.0015   85.2199    8.6512 C.ar    1  UNL1       -0.0003
      9 C          63.1472   84.5787    9.9993 C.ar    1  UNL1       -0.0000
     10 C          62.5409   85.2278   11.2080 C.ar    1  UNL1       -0.0002
     11 C          61.7890   86.5182   11.0687 C.ar    1  UNL1       -0.0030
     12 C          62.6866   84.5865   12.5562 C.ar    1  UNL1        0.0017
     13 C          63.2344   85.3767   13.7074 C.ar    1  UNL1        0.0114
     14 C          63.3801   84.7354   15.0555 C.ar    1  UNL1        0.0585
     15 CL         63.9280   85.5256   16.2068 Cl      1  UNL1       -0.0822
     16 C          62.9778   83.3038   15.2524 C.ar    1  UNL1        0.0228
     17 C          62.4299   82.5136   14.1013 C.ar    1  UNL1        0.0585
     18 CL         62.0277   81.0820   14.2982 Cl      1  UNL1       -0.0822
     19 C          62.2843   83.1549   12.7532 C.ar    1  UNL1        0.0114
     20 S          61.9536   89.1036   11.8603 S.O2    1  UNL1        0.0638
     21 O          62.7359   89.2743   10.5919 O.2     1  UNL1       -0.1528
     22 O          61.1712   88.9328   13.1287 O.2     1  UNL1       -0.1528
     23 C          68.0367   92.2549   15.8066 C.3     1  UNL1        0.0436
     24 C          67.1559   92.6253   14.6502 C.3     1  UNL1        0.1336
     25 C          68.0445   93.8328   14.6980 C.3     1  UNL1        0.0436
     26 C          66.5837   93.4150   13.5106 C.3     1  UNL1        0.0448
     27 C          65.4288   92.8686   12.7246 C.3     1  UNL1        0.0330
     28 C          64.8461   91.5325   13.0784 C.ar    1  UNL1        0.0132
     29 C          63.6912   90.9861   12.2925 C.ar    1  UNL1        0.0186
     30 C          63.1085   89.6500   12.6462 C.ar    1  UNL1        0.1221
     31 C          63.6807   88.8602   13.7860 C.ar    1  UNL1        0.0230
     32 C          64.8356   89.4066   14.5719 C.ar    1  UNL1        0.0379
     33 C          65.4183   90.7428   14.2181 C.ar    1  UNL1        0.1342
     34 O          66.5732   91.2891   15.0040 O.3     1  UNL1       -0.4829
     35 C          59.5510   88.1179   11.7817 C.3     1  UNL1        0.1374
     36 C          58.6189   89.1397   12.3622 C.2     1  UNL1        0.0683
     37 O          57.5782   88.7246   13.3596 O.co2   1  UNL1       -0.5477
     38 O          58.7273   90.5766   11.9454 O.co2   1  UNL1       -0.5477
@<TRIPOS>UNITY_ATOM_ATTR
37 1
charge -1
@<TRIPOS>BOND
     1    23    24    1
     2    24    25    1
     3    24    26    1
     4    26    27    1
     5    27    28    1
     6    28    29   ar
     7    29    30   ar
     8    30    20    1
     9    20    21    2
    10    20    22    2
    11    20     1    1
    12     1    35    1
    13    35    36    1
    14    36    37   ar
    15    36    38   ar
    16     1     2    1
    17     2     6    1
    18     6     7   ar
    19     7     8   ar
    20     8     9   ar
    21     9    10   ar
    22    10    12    1
    23    12    13   ar
    24    13    14   ar
    25    14    15    1
    26    14    16   ar
    27    16    17   ar
    28    17    18    1
    29    17    19   ar
    30    10    11   ar
    31     2     3    1
    32     3     4    1
    33     4     5    1
    34    30    31   ar
    35    31    32   ar
    36    32    33   ar
    37    33    34    1
    38    34    24    1
    39    33    28   ar
    40     5     2    1
    41    11     6   ar
    42    19    12   ar
@<TRIPOS>MOLECULE
*****
 38 42 0 0 0
SMALL
GASTEIGER

@<TRIPOS>ATOM
      1 N          63.9850   89.8077   13.5782 N.3     1  UNL1       -0.1487
      2 C          64.1508   90.6313   14.8209 C.3     1  UNL1        0.0849
      3 C          62.8808   90.0547   15.3726 C.3     1  UNL1        0.0206
      4 C          63.0467   90.8783   16.6153 C.3     1  UNL1        0.0035
      5 C          64.3167   91.4549   16.0635 C.3     1  UNL1        0.0206
      6 C          65.4208   91.2080   14.2691 C.ar    1  UNL1       -0.0077
      7 C          66.7334   90.8946   14.9239 C.ar    1  UNL1       -0.0030
      8 C          68.0035   91.4714   14.3721 C.ar    1  UNL1       -0.0003
      9 C          67.9608   92.3614   13.1655 C.ar    1  UNL1       -0.0000
     10 C          66.6482   92.6748   12.5107 C.ar    1  UNL1       -0.0002
     11 C          65.3782   92.0981   13.0624 C.ar    1  UNL1       -0.0030
     12 C          66.6056   93.5649   11.3040 C.ar    1  UNL1        0.0017
     13 C          65.7059   94.7650   11.2886 C.ar    1  UNL1        0.0114
     14 C          65.6634   95.6550   10.0820 C.ar    1  UNL1        0.0585
     15 CL         64.7636   96.8552   10.0666 Cl      1  UNL1       -0.0822
     16 C          66.5205   95.3450    8.8908 C.ar    1  UNL1        0.0228
     17 C          67.4202   94.1449    8.9061 C.ar    1  UNL1        0.0585
     18 CL         68.2774   93.8349    7.7148 Cl      1  UNL1       -0.0822
     19 C          67.4628   93.2549   10.1127 C.ar    1  UNL1        0.0114
     20 S          63.9296   88.3117   13.6718 S.O2    1  UNL1        0.0638
     21 O          64.7143   88.3626   14.9491 O.2     1  UNL1       -0.1528
     22 O          63.1449   88.2608   12.3945 O.2     1  UNL1       -0.1528
     23 C          63.5050   80.4191   13.8580 C.3     1  UNL1        0.0436
     24 C          63.1642   81.5240   12.9025 C.3     1  UNL1        0.1336
     25 C          62.7385   80.3368   12.0904 C.3     1  UNL1        0.0436
     26 C          62.6756   82.2166   11.6649 C.3     1  UNL1        0.0448
     27 C          62.7309   83.7127   11.5713 C.3     1  UNL1        0.0330
     28 C          63.2749   84.5161   12.7152 C.ar    1  UNL1        0.0132
     29 C          63.3303   86.0122   12.6215 C.ar    1  UNL1        0.0186
     30 C          63.8742   86.8156   13.7654 C.ar    1  UNL1        0.1221
     31 C          64.3629   86.1230   15.0031 C.ar    1  UNL1        0.0230
     32 C          64.3075   84.6270   15.0967 C.ar    1  UNL1        0.0379
     33 C          63.7635   83.8235   13.9527 C.ar    1  UNL1        0.1342
     34 O          63.7081   82.3275   14.0463 O.3     1  UNL1       -0.4829
     35 C          63.8745   90.4802   12.2419 C.3     1  UNL1        0.1374
     36 C          62.5501   90.5411   11.5403 C.2     1  UNL1        0.0683
     37 O          62.4975   90.7194   10.0518 O.co2   1  UNL1       -0.5477
     38 O          61.2784   90.4236   12.3270 O.co2   1  UNL1       -0.5477
@<TRIPOS>UNITY_ATOM_ATTR
37 1
charge -1
@<TRIPOS>BOND
     1    23    24    1
     2    24    25    1
     3    24    26    1
     4    26    27    1
     5    27    28    1
     6    28    29   ar
     7    29    30   ar
     8    30    20    1
     9    20    21    2
    10    20    22    2
    11    20     1    1
    12     1    35    1
    13    35    36    1
    14    36    37   ar
    15    36    38   ar
    16     1     2    1
    17     2     6    1
    18     6     7   ar
    19     7     8   ar
    20     8     9   ar
    21     9    10   ar
    22    10    12    1
    23    12    13   ar
    24    13    14   ar
    25    14    15    1
    26    14    16   ar
    27    16    17   ar
    28    17    18    1
    29    17    19   ar
    30    10    11   ar
    31     2     3    1
    32     3     4    1
    33     4     5    1
    34    30    31   ar
    35    31    32   ar
    36    32    33   ar
    37    33    34    1
    38    34    24    1
    39    33    28   ar
    40     5     2    1
    41    11     6   ar
    42    19    12   ar
