@<TRIPOS>MOLECULE
*****
 57 59 0 0 0
SMALL
GASTEIGER

@<TRIPOS>ATOM
      1 C          62.4786   83.4179   11.9184 C.3     1  UNL1        0.1953
      2 O          62.3993   84.2341   10.6624 O.3     1  UNL1       -0.4497
      3 C          62.3968   85.4899    9.8421 C.2     1  UNL1        0.3188
      4 O          62.2108   84.9549    8.4531 O.2     1  UNL1       -0.2500
      5 C          62.4717   86.9683    9.5994 C.3     1  UNL1        0.1263
      6 C          62.3127   86.7124    8.2834 C.3     1  UNL1        0.0142
      7 C          62.6110   88.4135    9.9762 C.3     1  UNL1        0.1306
      8 C          62.7906   89.5757   10.9074 C.3     1  UNL1        0.0575
      9 C          62.7684   90.7396    9.9613 C.3     1  UNL1        0.0051
     10 C          62.9795   90.2539   12.2319 C.3     1  UNL1        0.1444
     11 C          63.1449   90.3309   13.7207 C.3     1  UNL1        0.1134
     12 C          63.2448   90.8416   14.3246 C.3     1  UNL1        0.0318
     13 O          63.1689   91.6878   13.0818 O.3     1  UNL1       -0.3844
     14 C          63.2583   89.7934   15.1165 C.3     1  UNL1        0.0307
     15 C          63.3001   88.7342   16.1778 C.3     1  UNL1        0.0184
     16 C          63.4898   89.5481   17.4234 C.3     1  UNL1        0.0015
     17 C          63.2631   87.3366   16.7212 C.3     1  UNL1        0.0722
     18 N          63.1536   85.8422   16.6526 N.3     1  UNL1       -0.2705
     19 C          63.2823   85.4535   18.0957 C.3     1  UNL1        0.0897
     20 C          62.9906   84.5093   15.9840 C.3     1  UNL1        0.0870
     21 C          63.0515   83.5665   17.1491 C.3     1  UNL1        0.0200
     22 C          62.8023   83.5685   14.8310 C.3     1  UNL1        0.1528
     23 O          62.7849   82.2344   15.5166 O.3     1  UNL1       -0.3806
     24 C          62.6212   83.1825   13.3929 C.3     1  UNL1        0.1506
     25 C          62.4518   81.9004   12.6329 C.3     1  UNL1        0.0356
     26 O          62.6368   81.9865   14.2981 O.3     1  UNL1       -0.3808
     27 H          63.0594   91.5955   12.1224 H       1  UNL1        0.2103
     28 H          62.8962   82.3604   16.4719 H       1  UNL1        0.2105
     29 H          62.7554   82.2771   15.2159 H       1  UNL1        0.2105
     30 C          63.4477   81.3812   10.6290 C.3     1  UNL1        0.0039
     31 C          62.3266   82.0213   11.3928 C.3     1  UNL1        0.0462
     32 O          62.5141   89.0942    8.6430 O.3     1  UNL1       -0.3323
     33 C          61.1968   89.1597    7.9284 C.3     1  UNL1        0.2375
     34 C          60.9466   90.2362    6.9142 C.3     1  UNL1        0.0910
     35 C          59.6294   90.3018    6.1995 C.3     1  UNL1        0.1246
     36 C          58.5529   90.7755    5.2686 C.3     1  UNL1        0.0324
     37 C          58.5624   89.2909    6.4992 C.3     1  UNL1        0.1623
     38 O          57.2453   89.3564    5.7846 O.3     1  UNL1       -0.3796
     39 C          58.8127   88.2145    7.5134 C.3     1  UNL1        0.1468
     40 C          57.7458   87.2036    7.8130 C.3     1  UNL1        0.0348
     41 O          60.1299   88.1489    8.2280 O.3     1  UNL1       -0.3304
     42 H          56.6739   88.6358    6.0931 H       1  UNL1        0.2105
     43 O          60.3225   91.4771    5.5767 O.3     1  UNL1       -0.3532
     44 C          59.6495   92.2508    4.4818 C.3     1  UNL1        0.1740
     45 O          63.0357   91.6998   11.8366 O.3     1  UNL1       -0.3287
     46 C          64.3309   92.4514   11.9244 C.3     1  UNL1        0.2643
     47 O          64.9773   92.6783   13.2588 O.3     1  UNL1       -0.3311
     48 C          66.2725   93.4300   13.3466 C.3     1  UNL1        0.1194
     49 C          66.9191   93.6569   14.6809 C.3     1  UNL1        0.0322
     50 C          66.9211   93.9547   12.0999 C.3     1  UNL1        0.0482
     51 C          66.2746   93.7278   10.7656 C.3     1  UNL1        0.0921
     52 C          64.9795   92.9762   10.6778 C.3     1  UNL1        0.1815
     53 O          64.7112   92.9042    9.9306 O.3     1  UNL1       -0.3783
     54 H          65.3295   93.3378    9.3218 H       1  UNL1        0.2106
     55 N          66.9232   94.2525    9.5190 N.3     1  UNL1       -0.2692
     56 C          66.5263   95.5924    8.9740 C.3     1  UNL1        0.0897
     57 C          67.9688   93.4373    8.8174 C.3     1  UNL1        0.0897
@<TRIPOS>BOND
     1    30    31    1
     2     1    31    1
     3     1     2    1
     4     2     3    1
     5     3     4    2
     6     3     5    1
     7     5     6    1
     8     5     7    1
     9     7    32    1
    10    33    32    1
    11    33    34    1
    12    34    35    1
    13    35    36    1
    14    35    43    1
    15    43    44    1
    16    35    37    1
    17    37    38    1
    18    37    39    1
    19    39    40    1
    20    39    41    1
    21     7     8    1
    22     8     9    1
    23     8    10    1
    24    10    45    1
    25    46    45    1
    26    46    47    1
    27    47    48    1
    28    48    49    1
    29    48    50    1
    30    50    51    1
    31    51    55    1
    32    55    56    1
    33    55    57    1
    34    51    52    1
    35    52    53    1
    36    10    11    1
    37    11    12    1
    38    11    13    1
    39    11    14    1
    40    14    15    1
    41    15    16    1
    42    15    17    1
    43    17    18    1
    44    18    19    1
    45    18    20    1
    46    20    21    1
    47    20    22    1
    48    22    23    1
    49    22    24    1
    50    24    25    1
    51    24    26    1
    52    24     1    1
    53    41    33    1
    54    52    46    1
    55    38    42    1
    56    53    54    1
    57    13    27    1
    58    23    28    1
    59    26    29    1
@<TRIPOS>MOLECULE
*****
 57 59 0 0 0
SMALL
GASTEIGER

@<TRIPOS>ATOM
      1 C          62.4172   85.5566   10.3314 C.3     1  UNL1        0.1953
      2 O          62.6126   86.9693    9.8666 O.3     1  UNL1       -0.4497
      3 C          62.8643   88.4400   10.0203 C.2     1  UNL1        0.3188
      4 O          62.8335   88.9121    8.5968 O.2     1  UNL1       -0.2500
      5 C          63.1287   89.7144   10.7659 C.3     1  UNL1        0.1263
      6 C          63.1427   90.3521    9.5760 C.3     1  UNL1        0.0142
      7 C          63.3603   90.5722   11.9744 C.3     1  UNL1        0.1306
      8 C          63.5188   90.8650   13.4370 C.3     1  UNL1        0.0575
      9 C          63.7602   92.3455   13.4343 C.3     1  UNL1        0.0051
     10 C          63.5770   90.5422   14.9007 C.3     1  UNL1        0.1444
     11 C          63.5248   89.6597   16.1124 C.3     1  UNL1        0.1134
     12 C          63.5859   89.6652   16.9072 C.3     1  UNL1        0.0318
     13 O          63.7858   91.0924   16.4717 O.3     1  UNL1       -0.3844
     14 C          63.3711   88.3699   16.8627 C.3     1  UNL1        0.0307
     15 C          63.1426   86.8960   17.0217 C.3     1  UNL1        0.0184
     16 C          63.2275   86.7259   18.5096 C.3     1  UNL1        0.0015
     17 C          62.8788   85.4927   16.5621 C.3     1  UNL1        0.0722
     18 N          62.6252   84.4028   15.5632 N.3     1  UNL1       -0.2705
     19 C          62.4950   83.1961   16.4446 C.3     1  UNL1        0.0897
     20 C          62.4258   83.8147   14.1977 C.3     1  UNL1        0.0870
     21 C          62.2127   82.3634   14.5114 C.3     1  UNL1        0.0200
     22 C          62.3150   83.8300   12.7019 C.3     1  UNL1        0.1528
     23 O          62.0558   82.3850   12.3935 O.3     1  UNL1       -0.3806
     24 C          62.3120   84.4461   11.3343 C.3     1  UNL1        0.1506
     25 C          62.1253   83.9542    9.9296 C.3     1  UNL1        0.0356
     26 O          62.0669   82.9671   11.2848 O.3     1  UNL1       -0.3808
     27 H          63.8121   91.6287   15.6638 H       1  UNL1        0.2103
     28 H          62.0355   81.8768   13.2195 H       1  UNL1        0.2105
     29 H          62.0764   82.6075   12.1856 H       1  UNL1        0.2105
     30 C          62.9709   85.2300    7.8141 C.3     1  UNL1        0.0039
     31 C          62.2006   84.8296    9.0373 C.3     1  UNL1        0.0462
     32 O          63.5357   91.9309   11.3636 O.3     1  UNL1       -0.3323
     33 C          64.8996   92.3947   10.9452 C.3     1  UNL1        0.2375
     34 C          65.0449   93.6061   10.0726 C.3     1  UNL1        0.0910
     35 C          66.4086   94.0699    9.6542 C.3     1  UNL1        0.1246
     36 C          67.4783   94.8925    8.9991 C.3     1  UNL1        0.0324
     37 C          67.6271   93.3223   10.1086 C.3     1  UNL1        0.1623
     38 O          68.9909   93.7861    9.6903 O.3     1  UNL1       -0.3796
     39 C          67.4818   92.1110   10.9813 C.3     1  UNL1        0.1468
     40 C          68.7003   91.3635   11.4356 C.3     1  UNL1        0.0348
     41 O          66.1181   91.6472   11.3996 O.3     1  UNL1       -0.3304
     42 H          69.6626   93.1965   10.0673 H       1  UNL1        0.2105
     43 O          65.5616   95.1030    8.9724 O.3     1  UNL1       -0.3532
     44 C          66.1576   96.4234    8.5830 C.3     1  UNL1        0.1740
     45 O          63.8426   91.8884   15.5066 O.3     1  UNL1       -0.3287
     46 C          65.0998   92.6308   15.1627 C.3     1  UNL1        0.2643
     47 O          65.0944   93.6421   14.0548 O.3     1  UNL1       -0.3311
     48 C          66.3517   94.3845   13.7109 C.3     1  UNL1        0.1194
     49 C          66.3464   95.3957   12.6031 C.3     1  UNL1        0.0322
     50 C          67.6142   94.1156   14.4749 C.3     1  UNL1        0.0482
     51 C          67.6196   93.1043   15.5827 C.3     1  UNL1        0.0921
     52 C          66.3624   92.3620   15.9266 C.3     1  UNL1        0.1815
     53 O          66.4595   91.8463   16.5267 O.3     1  UNL1       -0.3783
     54 H          67.3788   91.8777   16.8345 H       1  UNL1        0.2106
     55 N          68.8822   92.8355   16.3467 N.3     1  UNL1       -0.2692
     56 C          69.9655   93.8719   16.3936 C.3     1  UNL1        0.0897
     57 C          69.0615   91.5302   17.0637 C.3     1  UNL1        0.0897
@<TRIPOS>BOND
     1    30    31    1
     2     1    31    1
     3     1     2    1
     4     2     3    1
     5     3     4    2
     6     3     5    1
     7     5     6    1
     8     5     7    1
     9     7    32    1
    10    33    32    1
    11    33    34    1
    12    34    35    1
    13    35    36    1
    14    35    43    1
    15    43    44    1
    16    35    37    1
    17    37    38    1
    18    37    39    1
    19    39    40    1
    20    39    41    1
    21     7     8    1
    22     8     9    1
    23     8    10    1
    24    10    45    1
    25    46    45    1
    26    46    47    1
    27    47    48    1
    28    48    49    1
    29    48    50    1
    30    50    51    1
    31    51    55    1
    32    55    56    1
    33    55    57    1
    34    51    52    1
    35    52    53    1
    36    10    11    1
    37    11    12    1
    38    11    13    1
    39    11    14    1
    40    14    15    1
    41    15    16    1
    42    15    17    1
    43    17    18    1
    44    18    19    1
    45    18    20    1
    46    20    21    1
    47    20    22    1
    48    22    23    1
    49    22    24    1
    50    24    25    1
    51    24    26    1
    52    24     1    1
    53    41    33    1
    54    52    46    1
    55    38    42    1
    56    53    54    1
    57    13    27    1
    58    23    28    1
    59    26    29    1
@<TRIPOS>MOLECULE
*****
 57 59 0 0 0
SMALL
GASTEIGER

@<TRIPOS>ATOM
      1 C          62.5087   83.4552   11.7688 C.3     1  UNL1        0.1953
      2 O          62.4763   84.2915   10.5241 O.3     1  UNL1       -0.4497
      3 C          62.5076   85.5601    9.7243 C.2     1  UNL1        0.3188
      4 O          62.3672   85.0479    8.3214 O.2     1  UNL1       -0.2500
      5 C          62.5974   87.0417    9.5079 C.3     1  UNL1        0.1263
      6 C          62.4826   86.8074    8.1833 C.3     1  UNL1        0.0142
      7 C          62.7300   88.4801    9.9123 C.3     1  UNL1        0.1306
      8 C          62.8826   89.6266   10.8674 C.3     1  UNL1        0.0575
      9 C          62.8981   90.8053    9.9399 C.3     1  UNL1        0.0051
     10 C          63.0287   90.2828   12.2083 C.3     1  UNL1        0.1444
     11 C          63.1431   90.3355   13.7030 C.3     1  UNL1        0.1134
     12 C          63.2243   90.8360   14.3181 C.3     1  UNL1        0.0318
     13 O          63.1951   91.7022   13.0870 O.3     1  UNL1       -0.3844
     14 C          63.2060   89.7754   15.0931 C.3     1  UNL1        0.0307
     15 C          63.2065   88.6994   16.1382 C.3     1  UNL1        0.0184
     16 C          63.3567   89.4926   17.4024 C.3     1  UNL1        0.0015
     17 C          63.1446   87.2936   16.6576 C.3     1  UNL1        0.0722
     18 N          63.0309   85.8010   16.5615 N.3     1  UNL1       -0.2705
     19 C          63.1081   85.3890   18.0018 C.3     1  UNL1        0.0897
     20 C          62.8852   84.4797   15.8665 C.3     1  UNL1        0.0870
     21 C          62.9018   83.5183   17.0178 C.3     1  UNL1        0.0200
     22 C          62.7325   83.5581   14.6928 C.3     1  UNL1        0.1528
     23 O          62.6856   82.2135   15.3561 O.3     1  UNL1       -0.3806
     24 C          62.5993   83.1958   13.2434 C.3     1  UNL1        0.1506
     25 C          62.4506   81.9268   12.4577 C.3     1  UNL1        0.0356
     26 O          62.5785   81.9856   14.1294 O.3     1  UNL1       -0.3808
     27 H          63.1182   91.6255   12.1231 H       1  UNL1        0.2103
     28 H          62.7646   82.3238   16.3166 H       1  UNL1        0.2105
     29 H          62.6667   82.2611   15.0553 H       1  UNL1        0.2105
     30 C          63.5154   81.4312   10.4881 C.3     1  UNL1        0.0039
     31 C          62.3687   82.0677   11.2161 C.3     1  UNL1        0.0462
     32 O          62.6821   89.1821    8.5876 O.3     1  UNL1       -0.3323
     33 C          61.3724   89.3537    7.8766 C.3     1  UNL1        0.2375
     34 C          60.2290   88.4307    8.1778 C.3     1  UNL1        0.0910
     35 C          58.9193   88.6021    7.4669 C.3     1  UNL1        0.1246
     36 C          57.4957   88.3649    7.0582 C.3     1  UNL1        0.0324
     37 C          58.7531   89.6966    6.4548 C.3     1  UNL1        0.1623
     38 O          57.4435   89.8681    5.7439 O.3     1  UNL1       -0.3796
     39 C          59.8964   90.6196    6.1536 C.3     1  UNL1        0.1468
     40 C          59.7302   91.7141    5.1414 C.3     1  UNL1        0.0348
     41 O          61.2061   90.4482    6.8645 O.3     1  UNL1       -0.3304
     42 H          57.5052   90.6153    5.1283 H       1  UNL1        0.2105
     43 O          58.5912   87.4253    8.3371 O.3     1  UNL1       -0.3532
     44 C          59.1292   86.0672    7.9960 C.3     1  UNL1        0.1740
     45 O          63.1049   91.7345   11.8383 O.3     1  UNL1       -0.3287
     46 C          64.4062   92.4711   11.9564 C.3     1  UNL1        0.2643
     47 O          65.0512   92.6436   13.2996 O.3     1  UNL1       -0.3311
     48 C          66.3525   93.3804   13.4177 C.3     1  UNL1        0.1194
     49 C          66.9976   93.5529   14.7608 C.3     1  UNL1        0.0322
     50 C          67.0088   93.9445   12.1925 C.3     1  UNL1        0.0482
     51 C          66.3638   93.7720   10.8493 C.3     1  UNL1        0.0921
     52 C          65.0625   93.0353   10.7312 C.3     1  UNL1        0.1815
     53 O          64.7955   92.9930    9.9813 O.3     1  UNL1       -0.3783
     54 H          65.4191   93.4431    9.3901 H       1  UNL1        0.2106
     55 N          67.0201   94.3362    9.6241 N.3     1  UNL1       -0.2692
     56 C          68.0493   93.5318    8.8868 C.3     1  UNL1        0.0897
     57 C          66.6472   95.7047    9.1363 C.3     1  UNL1        0.0897
@<TRIPOS>BOND
     1    30    31    1
     2     1    31    1
     3     1     2    1
     4     2     3    1
     5     3     4    2
     6     3     5    1
     7     5     6    1
     8     5     7    1
     9     7    32    1
    10    33    32    1
    11    33    34    1
    12    34    35    1
    13    35    36    1
    14    35    43    1
    15    43    44    1
    16    35    37    1
    17    37    38    1
    18    37    39    1
    19    39    40    1
    20    39    41    1
    21     7     8    1
    22     8     9    1
    23     8    10    1
    24    10    45    1
    25    46    45    1
    26    46    47    1
    27    47    48    1
    28    48    49    1
    29    48    50    1
    30    50    51    1
    31    51    55    1
    32    55    56    1
    33    55    57    1
    34    51    52    1
    35    52    53    1
    36    10    11    1
    37    11    12    1
    38    11    13    1
    39    11    14    1
    40    14    15    1
    41    15    16    1
    42    15    17    1
    43    17    18    1
    44    18    19    1
    45    18    20    1
    46    20    21    1
    47    20    22    1
    48    22    23    1
    49    22    24    1
    50    24    25    1
    51    24    26    1
    52    24     1    1
    53    41    33    1
    54    52    46    1
    55    38    42    1
    56    53    54    1
    57    13    27    1
    58    23    28    1
    59    26    29    1
@<TRIPOS>MOLECULE
*****
 57 59 0 0 0
SMALL
GASTEIGER

@<TRIPOS>ATOM
      1 C          62.5071   83.4628   12.0558 C.3     1  UNL1        0.1953
      2 O          62.4379   84.2520   10.7821 O.3     1  UNL1       -0.4497
      3 C          62.4396   85.4900    9.9353 C.2     1  UNL1        0.3188
      4 O          62.2696   84.9250    8.5562 O.2     1  UNL1       -0.2500
      5 C          62.5121   86.9632    9.6620 C.3     1  UNL1        0.1263
      6 C          62.3673   86.6788    8.3502 C.3     1  UNL1        0.0142
      7 C          62.6428   88.4165   10.0094 C.3     1  UNL1        0.1306
      8 C          62.8091   89.5989   10.9174 C.3     1  UNL1        0.0575
      9 C          62.7927   90.7424    9.9466 C.3     1  UNL1        0.0051
     10 C          62.9822   90.3057   12.2290 C.3     1  UNL1        0.1444
     11 C          63.1322   90.4149   13.7175 C.3     1  UNL1        0.1134
     12 C          63.2243   90.9386   14.3114 C.3     1  UNL1        0.0318
     13 O          63.1583   91.7580   13.0501 O.3     1  UNL1       -0.3844
     14 C          63.2332   89.9074   15.1254 C.3     1  UNL1        0.0307
     15 C          63.2677   88.8712   16.2094 C.3     1  UNL1        0.0184
     16 C          63.4420   89.7120   17.4392 C.3     1  UNL1        0.0015
     17 C          63.2297   87.4853   16.7819 C.3     1  UNL1        0.0722
     18 N          63.1259   85.9894   16.7441 N.3     1  UNL1       -0.2705
     19 C          63.2412   85.6319   18.1963 C.3     1  UNL1        0.0897
     20 C          62.9741   84.6421   16.1023 C.3     1  UNL1        0.0870
     21 C          63.0262   83.7244   17.2877 C.3     1  UNL1        0.0200
     22 C          62.8006   83.6763   14.9677 C.3     1  UNL1        0.1528
     23 O          62.7806   82.3571   15.6813 O.3     1  UNL1       -0.3806
     24 C          62.6354   83.2593   13.5364 C.3     1  UNL1        0.1506
     25 C          62.4780   81.9608   12.8022 C.3     1  UNL1        0.0356
     26 O          62.6458   82.0828   14.4669 O.3     1  UNL1       -0.3808
     27 H          63.0588   91.6449   12.0919 H       1  UNL1        0.2103
     28 H          62.8819   82.5037   16.6348 H       1  UNL1        0.2105
     29 H          62.7541   82.3933   15.3795 H       1  UNL1        0.2105
     30 C          63.3552   81.5029   10.5762 C.3     1  UNL1        0.0039
     31 C          62.3651   82.0548   11.5586 C.3     1  UNL1        0.0462
     32 O          62.5572   89.0684    8.6611 O.3     1  UNL1       -0.3323
     33 C          61.2423   89.1348    7.9422 C.3     1  UNL1        0.2375
     34 C          60.9920   90.2179    6.9351 C.3     1  UNL1        0.0910
     35 C          59.6771   90.2843    6.2163 C.3     1  UNL1        0.1246
     36 C          58.6024   90.7613    5.2850 C.3     1  UNL1        0.0324
     37 C          58.6126   89.2676    6.5045 C.3     1  UNL1        0.1623
     38 O          57.2978   89.3340    5.7858 O.3     1  UNL1       -0.3796
     39 C          58.8629   88.1845    7.5116 C.3     1  UNL1        0.1468
     40 C          57.7984   87.1678    7.7999 C.3     1  UNL1        0.0348
     41 O          60.1778   88.1181    8.2305 O.3     1  UNL1       -0.3304
     42 H          56.7278   88.6091    6.0868 H       1  UNL1        0.2105
     43 O          60.3684   91.4666    5.6046 O.3     1  UNL1       -0.3532
     44 C          59.7214   92.2120    4.4751 C.3     1  UNL1        0.1740
     45 O          63.0378   91.7431   11.8037 O.3     1  UNL1       -0.3287
     46 C          64.3637   92.4156   11.6047 C.3     1  UNL1        0.2643
     47 O          64.5193   93.4688   10.5480 O.3     1  UNL1       -0.3311
     48 C          65.8453   94.1414   10.3490 C.3     1  UNL1        0.1194
     49 C          66.0010   95.1946    9.2924 C.3     1  UNL1        0.0322
     50 C          67.0155   93.7606   11.2067 C.3     1  UNL1        0.0482
     51 C          66.8599   92.7074   12.2633 C.3     1  UNL1        0.0921
     52 C          65.5340   92.0349   12.4623 C.3     1  UNL1        0.1815
     53 O          65.5452   91.4903   13.0443 O.3     1  UNL1       -0.3783
     54 H          66.4335   91.4496   13.4319 H       1  UNL1        0.2106
     55 N          68.0302   92.3267   13.1210 N.3     1  UNL1       -0.2692
     56 C          68.0927   92.7812   14.5491 C.3     1  UNL1        0.0897
     57 C          69.1379   91.4916   12.5505 C.3     1  UNL1        0.0897
@<TRIPOS>BOND
     1    30    31    1
     2     1    31    1
     3     1     2    1
     4     2     3    1
     5     3     4    2
     6     3     5    1
     7     5     6    1
     8     5     7    1
     9     7    32    1
    10    33    32    1
    11    33    34    1
    12    34    35    1
    13    35    36    1
    14    35    43    1
    15    43    44    1
    16    35    37    1
    17    37    38    1
    18    37    39    1
    19    39    40    1
    20    39    41    1
    21     7     8    1
    22     8     9    1
    23     8    10    1
    24    10    45    1
    25    46    45    1
    26    46    47    1
    27    47    48    1
    28    48    49    1
    29    48    50    1
    30    50    51    1
    31    51    55    1
    32    55    56    1
    33    55    57    1
    34    51    52    1
    35    52    53    1
    36    10    11    1
    37    11    12    1
    38    11    13    1
    39    11    14    1
    40    14    15    1
    41    15    16    1
    42    15    17    1
    43    17    18    1
    44    18    19    1
    45    18    20    1
    46    20    21    1
    47    20    22    1
    48    22    23    1
    49    22    24    1
    50    24    25    1
    51    24    26    1
    52    24     1    1
    53    41    33    1
    54    52    46    1
    55    38    42    1
    56    53    54    1
    57    13    27    1
    58    23    28    1
    59    26    29    1
@<TRIPOS>MOLECULE
*****
 57 59 0 0 0
SMALL
GASTEIGER

@<TRIPOS>ATOM
      1 C          62.4981   83.5459   11.8994 C.3     1  UNL1        0.1953
      2 O          62.4781   84.3588   10.6390 O.3     1  UNL1       -0.4497
      3 C          62.5203   85.6120    9.8158 C.2     1  UNL1        0.3188
      4 O          62.3885   85.0742    8.4217 O.2     1  UNL1       -0.2500
      5 C          62.6173   87.0890    9.5724 C.3     1  UNL1        0.1263
      6 C          62.5116   86.8303    8.2516 C.3     1  UNL1        0.0142
      7 C          62.7522   88.5342    9.9507 C.3     1  UNL1        0.1306
      8 C          62.9019   89.6979   10.8854 C.3     1  UNL1        0.0575
      9 C          62.9288   90.8590    9.9360 C.3     1  UNL1        0.0051
     10 C          63.0404   90.3786   12.2148 C.3     1  UNL1        0.1444
     11 C          63.1437   90.4589   13.7091 C.3     1  UNL1        0.1134
     12 C          63.2222   90.9706   14.3152 C.3     1  UNL1        0.0318
     13 O          63.2054   91.8136   13.0680 O.3     1  UNL1       -0.3844
     14 C          63.1940   89.9248   15.1098 C.3     1  UNL1        0.0307
     15 C          63.1827   88.8686   16.1749 C.3     1  UNL1        0.0184
     16 C          63.3263   89.6849   17.4251 C.3     1  UNL1        0.0015
     17 C          63.1116   87.4731   16.7201 C.3     1  UNL1        0.0722
     18 N          62.9930   85.9793   16.6511 N.3     1  UNL1       -0.2705
     19 C          63.0578   85.5942   18.0994 C.3     1  UNL1        0.0897
     20 C          62.8475   84.6458   15.9799 C.3     1  UNL1        0.0870
     21 C          62.8518   83.7061   17.1491 C.3     1  UNL1        0.0200
     22 C          62.7002   83.7029   14.8226 C.3     1  UNL1        0.1528
     23 O          62.6433   82.3711   15.5106 O.3     1  UNL1       -0.3806
     24 C          62.5766   83.3139   13.3793 C.3     1  UNL1        0.1506
     25 C          62.4290   82.0309   12.6164 C.3     1  UNL1        0.0356
     26 O          62.5446   82.1206   14.2876 O.3     1  UNL1       -0.3808
     27 H          63.1356   91.7192   12.1051 H       1  UNL1        0.2103
     28 H          62.7154   82.4992   16.4694 H       1  UNL1        0.2105
     29 H          62.6268   82.4131   15.2088 H       1  UNL1        0.2105
     30 C          63.4590   81.5404   10.5560 C.3     1  UNL1        0.0039
     31 C          62.3570   82.1488   11.3718 C.3     1  UNL1        0.0462
     32 O          62.7169   89.2115    8.6128 O.3     1  UNL1       -0.3323
     33 C          61.4128   89.3769    7.8901 C.3     1  UNL1        0.2375
     34 C          60.2629   88.4649    8.1997 C.3     1  UNL1        0.0910
     35 C          58.9589   88.6303    7.4771 C.3     1  UNL1        0.1246
     36 C          57.5369   88.3930    7.0629 C.3     1  UNL1        0.0324
     37 C          58.8048   89.7078    6.4449 C.3     1  UNL1        0.1623
     38 O          57.5009   89.8732    5.7223 O.3     1  UNL1       -0.3796
     39 C          59.9548   90.6198    6.1353 C.3     1  UNL1        0.1468
     40 C          59.8007   91.6972    5.1032 C.3     1  UNL1        0.0348
     41 O          61.2588   90.4544    6.8579 O.3     1  UNL1       -0.3304
     42 H          57.5704   90.6092    5.0942 H       1  UNL1        0.2105
     43 O          58.6191   87.4705    8.3654 O.3     1  UNL1       -0.3532
     44 C          59.0988   86.0927    8.0164 C.3     1  UNL1        0.1740
     45 O          63.1249   91.8228   11.8183 O.3     1  UNL1       -0.3287
     46 C          64.4640   92.4721   11.6314 C.3     1  UNL1        0.2643
     47 O          64.6476   93.5223   10.5762 O.3     1  UNL1       -0.3311
     48 C          65.9869   94.1716   10.3893 C.3     1  UNL1        0.1194
     49 C          66.1705   95.2218    9.3342 C.3     1  UNL1        0.0322
     50 C          67.1424   93.7707   11.2576 C.3     1  UNL1        0.0482
     51 C          66.9589   92.7205   12.3128 C.3     1  UNL1        0.0921
     52 C          65.6197   92.0712   12.4997 C.3     1  UNL1        0.1815
     53 O          65.6161   91.5265   13.0817 O.3     1  UNL1       -0.3783
     54 H          66.5000   91.4704   13.4774 H       1  UNL1        0.2106
     55 N          68.1145   92.3196   13.1810 N.3     1  UNL1       -0.2692
     56 C          69.1980   91.4414   12.6291 C.3     1  UNL1        0.0897
     57 C          68.1865   92.7969   14.6012 C.3     1  UNL1        0.0897
@<TRIPOS>BOND
     1    30    31    1
     2     1    31    1
     3     1     2    1
     4     2     3    1
     5     3     4    2
     6     3     5    1
     7     5     6    1
     8     5     7    1
     9     7    32    1
    10    33    32    1
    11    33    34    1
    12    34    35    1
    13    35    36    1
    14    35    43    1
    15    43    44    1
    16    35    37    1
    17    37    38    1
    18    37    39    1
    19    39    40    1
    20    39    41    1
    21     7     8    1
    22     8     9    1
    23     8    10    1
    24    10    45    1
    25    46    45    1
    26    46    47    1
    27    47    48    1
    28    48    49    1
    29    48    50    1
    30    50    51    1
    31    51    55    1
    32    55    56    1
    33    55    57    1
    34    51    52    1
    35    52    53    1
    36    10    11    1
    37    11    12    1
    38    11    13    1
    39    11    14    1
    40    14    15    1
    41    15    16    1
    42    15    17    1
    43    17    18    1
    44    18    19    1
    45    18    20    1
    46    20    21    1
    47    20    22    1
    48    22    23    1
    49    22    24    1
    50    24    25    1
    51    24    26    1
    52    24     1    1
    53    41    33    1
    54    52    46    1
    55    38    42    1
    56    53    54    1
    57    13    27    1
    58    23    28    1
    59    26    29    1
