@<TRIPOS>MOLECULE
*****
 28 31 0 0 0
SMALL
GASTEIGER

@<TRIPOS>ATOM
      1 C          64.9455   92.4427   11.7969 C.ar    1  UNL1        0.0515
      2 C          65.7098   92.3065   13.0804 C.ar    1  UNL1        0.0160
      3 C          65.3475   91.2282   14.0582 C.ar    1  UNL1        0.0175
      4 C          64.2210   90.2862   13.7525 C.ar    1  UNL1        0.0718
      5 C          63.4567   90.4225   12.4691 C.ar    1  UNL1        0.0730
      6 CL         62.3301   89.4804   12.1634 Cl      1  UNL1       -0.0809
      7 C          63.8190   91.5007   11.4913 C.ar    1  UNL1        0.0273
      8 N          63.8587   89.2079   14.7303 N.am    1  UNL1       -0.2002
      9 C          63.8813   87.7320   14.4637 C.2     1  UNL1        0.2590
     10 O          64.2702   87.0752   13.1724 O.2     1  UNL1       -0.2691
     11 C          63.4468   87.0281   15.7150 C.ar    1  UNL1        0.0617
     12 C          63.2786   85.5739   16.0418 C.ar    1  UNL1        0.0254
     13 C          62.8193   85.1606   17.4086 C.ar    1  UNL1        0.0990
     14 N          62.5282   86.2015   18.4486 N.ar    1  UNL1       -0.2422
     15 C          62.6963   87.6558   18.1218 C.ar    1  UNL1        0.1035
     16 C          63.1556   88.0691   16.7551 C.ar    1  UNL1        0.0778
     17 C          63.4102   89.4162   16.1465 C.2     1  UNL1        0.2604
     18 O          63.2452   90.7394   16.8335 O.2     1  UNL1       -0.2691
     19 C          66.7011   93.5972   10.2688 C.2     1  UNL1        0.2839
     20 O          67.7322   92.5950   10.6963 O.2     1  UNL1       -0.2665
     21 N          65.3078   93.5210   10.8191 N.am    1  UNL1       -0.2778
     22 H          64.6311   94.1787   10.5386 H       1  UNL1        0.1553
     23 C          66.6830   96.8067   10.8588 C.3     1  UNL1        0.0345
     24 C          67.0550   96.1508    9.5623 C.ar    1  UNL1        0.0204
     25 C          67.4841   96.8548    8.3091 C.ar    1  UNL1        0.0396
     26 C          67.7576   95.8147    7.2635 C.ar    1  UNL1        0.1795
     27 O          67.4976   94.4678    7.8703 O.2     1  UNL1       -0.4461
     28 C          67.0634   94.6754    9.2910 C.ar    1  UNL1        0.1948
@<TRIPOS>BOND
     1    23    24    1
     2    24    25   ar
     3    25    26   ar
     4    26    27   ar
     5    27    28   ar
     6    28    19    1
     7    19    20    2
     8    19    21   am
     9    21     1    1
    10     1     2   ar
    11     2     3   ar
    12     3     4   ar
    13     4     8    1
    14     8     9   am
    15     9    10    2
    16     9    11    1
    17    11    12   ar
    18    12    13   ar
    19    13    14   ar
    20    14    15   ar
    21    15    16   ar
    22    16    17    1
    23    17    18    2
    24     4     5   ar
    25     5     6    1
    26     5     7   ar
    27    28    24   ar
    28     7     1   ar
    29    17     8   am
    30    16    11   ar
    31    21    22    1
@<TRIPOS>MOLECULE
*****
 28 31 0 0 0
SMALL
GASTEIGER

@<TRIPOS>ATOM
      1 C          64.9101   92.4507   11.7047 C.ar    1  UNL1        0.0515
      2 C          63.8097   91.4757   11.4076 C.ar    1  UNL1        0.0160
      3 C          63.4591   90.4131   12.4067 C.ar    1  UNL1        0.0175
      4 C          64.2090   90.3256   13.7028 C.ar    1  UNL1        0.0718
      5 C          65.3094   91.3006   13.9998 C.ar    1  UNL1        0.0730
      6 CL         66.0594   91.2131   15.2960 Cl      1  UNL1       -0.0809
      7 C          65.6600   92.3631   13.0008 C.ar    1  UNL1        0.0273
      8 N          63.8585   89.2630   14.7018 N.am    1  UNL1       -0.2002
      9 C          63.4352   89.4935   16.1223 C.2     1  UNL1        0.2590
     10 O          63.2883   90.8271   16.7931 O.2     1  UNL1       -0.2691
     11 C          63.1848   88.1563   16.7542 C.ar    1  UNL1        0.0617
     12 C          62.7470   87.7646   18.1343 C.ar    1  UNL1        0.0254
     13 C          62.5776   86.3160   18.4845 C.ar    1  UNL1        0.0990
     14 N          62.8460   85.2590   17.4546 N.ar    1  UNL1       -0.2422
     15 C          63.2838   85.6507   16.0744 C.ar    1  UNL1        0.1035
     16 C          63.4532   87.0994   15.7242 C.ar    1  UNL1        0.0778
     17 C          63.8696   87.7834   14.4558 C.2     1  UNL1        0.2604
     18 O          64.2332   87.1065   13.1676 O.2     1  UNL1       -0.2691
     19 C          66.6662   93.6278   10.1946 C.2     1  UNL1        0.2839
     20 O          67.7213   92.6797   10.6826 O.2     1  UNL1       -0.2665
     21 N          65.2607   93.5132   10.7057 N.am    1  UNL1       -0.2778
     22 H          64.5682   94.1355   10.3854 H       1  UNL1        0.1553
     23 C          66.3678   96.8476   10.6344 C.3     1  UNL1        0.0345
     24 C          66.8796   96.1704    9.3977 C.ar    1  UNL1        0.0204
     25 C          67.3441   96.8542    8.1460 C.ar    1  UNL1        0.0396
     26 C          67.7684   95.7968    7.1703 C.ar    1  UNL1        0.1795
     27 O          67.5661   94.4595    7.8190 O.2     1  UNL1       -0.4461
     28 C          67.0168   94.6903    9.1956 C.ar    1  UNL1        0.1948
@<TRIPOS>BOND
     1    23    24    1
     2    24    25   ar
     3    25    26   ar
     4    26    27   ar
     5    27    28   ar
     6    28    19    1
     7    19    20    2
     8    19    21   am
     9    21     1    1
    10     1     2   ar
    11     2     3   ar
    12     3     4   ar
    13     4     8    1
    14     8     9   am
    15     9    10    2
    16     9    11    1
    17    11    12   ar
    18    12    13   ar
    19    13    14   ar
    20    14    15   ar
    21    15    16   ar
    22    16    17    1
    23    17    18    2
    24     4     5   ar
    25     5     6    1
    26     5     7   ar
    27    28    24   ar
    28     7     1   ar
    29    17     8   am
    30    16    11   ar
    31    21    22    1
@<TRIPOS>MOLECULE
*****
 28 31 0 0 0
SMALL
GASTEIGER

@<TRIPOS>ATOM
      1 C          64.2396   91.1432   12.5510 C.ar    1  UNL1        0.0515
      2 C          64.9242   90.4184   13.6717 C.ar    1  UNL1        0.0160
      3 C          64.6319   88.9676   13.9158 C.ar    1  UNL1        0.0175
      4 C          63.6549   88.2415   13.0392 C.ar    1  UNL1        0.0718
      5 C          62.9703   88.9664   11.9186 C.ar    1  UNL1        0.0730
      6 CL         61.9932   88.2403   11.0420 Cl      1  UNL1       -0.0809
      7 C          63.2626   90.4172   11.6745 C.ar    1  UNL1        0.0273
      8 N          63.3625   86.7907   13.2833 N.am    1  UNL1       -0.2002
      9 C          63.0454   85.7665   12.2343 C.2     1  UNL1        0.2590
     10 O          62.9649   86.0134   10.7569 O.2     1  UNL1       -0.2691
     11 C          62.8228   84.4521   12.9220 C.ar    1  UNL1        0.0617
     12 C          62.4798   83.0898   12.3963 C.ar    1  UNL1        0.0254
     13 C          62.3165   81.9393   13.3448 C.ar    1  UNL1        0.0990
     14 N          62.4961   82.1511   14.8188 N.ar    1  UNL1       -0.2422
     15 C          62.8391   83.5134   15.3445 C.ar    1  UNL1        0.1035
     16 C          63.0024   84.6640   14.3960 C.ar    1  UNL1        0.0778
     17 C          63.3360   86.1093   14.6194 C.2     1  UNL1        0.2604
     18 O          63.5971   86.7590   15.9459 O.2     1  UNL1       -0.2691
     19 C          65.8304   93.0017   11.6762 C.2     1  UNL1        0.2839
     20 O          66.8366   91.9585   11.2896 O.2     1  UNL1       -0.2665
     21 N          64.5319   92.5941   12.3069 N.am    1  UNL1       -0.2778
     22 H          63.8716   93.2787   12.5607 H       1  UNL1        0.1553
     23 C          67.2125   94.2560    8.9992 C.3     1  UNL1        0.0345
     24 C          66.7580   95.0291   10.2016 C.ar    1  UNL1        0.0204
     25 C          66.8590   96.5145   10.3847 C.ar    1  UNL1        0.0396
     26 C          66.2862   96.8560   11.7283 C.ar    1  UNL1        0.1795
     27 O          65.8312   95.5816   12.3756 O.2     1  UNL1       -0.4461
     28 C          66.1227   94.4526   11.4321 C.ar    1  UNL1        0.1948
@<TRIPOS>BOND
     1    23    24    1
     2    24    25   ar
     3    25    26   ar
     4    26    27   ar
     5    27    28   ar
     6    28    19    1
     7    19    20    2
     8    19    21   am
     9    21     1    1
    10     1     2   ar
    11     2     3   ar
    12     3     4   ar
    13     4     8    1
    14     8     9   am
    15     9    10    2
    16     9    11    1
    17    11    12   ar
    18    12    13   ar
    19    13    14   ar
    20    14    15   ar
    21    15    16   ar
    22    16    17    1
    23    17    18    2
    24     4     5   ar
    25     5     6    1
    26     5     7   ar
    27    28    24   ar
    28     7     1   ar
    29    17     8   am
    30    16    11   ar
    31    21    22    1
@<TRIPOS>MOLECULE
*****
 28 31 0 0 0
SMALL
GASTEIGER

@<TRIPOS>ATOM
      1 C          58.5661   94.4091   -0.3659 C.ar    1  UNL1        0.0515
      2 C          58.3424   95.8409   -0.7530 C.ar    1  UNL1        0.0160
      3 C          57.1652   96.2123   -1.6051 C.ar    1  UNL1        0.0175
      4 C          56.2116   95.1520   -2.0702 C.ar    1  UNL1        0.0718
      5 C          56.4353   93.7202   -1.6832 C.ar    1  UNL1        0.0730
      6 CL         55.4817   92.6598   -2.1483 Cl      1  UNL1       -0.0809
      7 C          57.6125   93.3487   -0.8310 C.ar    1  UNL1        0.0273
      8 N          55.0344   95.5235   -2.9224 N.am    1  UNL1       -0.2002
      9 C          53.6693   95.8975   -2.4256 C.2     1  UNL1        0.2590
     10 O          53.2419   95.9657   -0.9894 O.2     1  UNL1       -0.2691
     11 C          52.8068   96.1913   -3.6171 C.ar    1  UNL1        0.0617
     12 C          51.3713   96.6092   -3.7385 C.ar    1  UNL1        0.0254
     13 C          50.7679   96.8347   -5.0930 C.ar    1  UNL1        0.0990
     14 N          51.5998   96.6423   -6.3262 N.ar    1  UNL1       -0.2422
     15 C          53.0353   96.2244   -6.2049 C.ar    1  UNL1        0.1035
     16 C          53.6388   95.9989   -4.8503 C.ar    1  UNL1        0.0778
     17 C          55.0155   95.5862   -4.4209 C.2     1  UNL1        0.2604
     18 O          56.1705   95.2884   -5.3305 O.2     1  UNL1       -0.2691
     19 C          60.9774   93.4670   -0.1472 C.2     1  UNL1        0.2839
     20 O          61.0343   93.2678   -1.6329 O.2     1  UNL1       -0.2665
     21 N          59.7433   94.0376    0.4862 N.am    1  UNL1       -0.2778
     22 H          59.7059   94.1684    1.4613 H       1  UNL1        0.1553
     23 C          64.0347   94.5440   -0.5248 C.3     1  UNL1        0.0345
     24 C          63.5599   93.5906    0.5313 C.ar    1  UNL1        0.0204
     25 C          64.4071   92.9648    1.5995 C.ar    1  UNL1        0.0396
     26 C          63.5253   92.0830    2.4331 C.ar    1  UNL1        0.1795
     27 O          62.1333   92.1638    1.8803 O.2     1  UNL1       -0.4461
     28 C          62.1546   93.0955    0.7049 C.ar    1  UNL1        0.1948
@<TRIPOS>BOND
     1    23    24    1
     2    24    25   ar
     3    25    26   ar
     4    26    27   ar
     5    27    28   ar
     6    28    19    1
     7    19    20    2
     8    19    21   am
     9    21     1    1
    10     1     2   ar
    11     2     3   ar
    12     3     4   ar
    13     4     8    1
    14     8     9   am
    15     9    10    2
    16     9    11    1
    17    11    12   ar
    18    12    13   ar
    19    13    14   ar
    20    14    15   ar
    21    15    16   ar
    22    16    17    1
    23    17    18    2
    24     4     5   ar
    25     5     6    1
    26     5     7   ar
    27    28    24   ar
    28     7     1   ar
    29    17     8   am
    30    16    11   ar
    31    21    22    1
@<TRIPOS>MOLECULE
*****
 28 31 0 0 0
SMALL
GASTEIGER

@<TRIPOS>ATOM
      1 C          64.3550   86.8116   14.5380 C.ar    1  UNL1        0.0515
      2 C          65.0974   85.5790   14.9619 C.ar    1  UNL1        0.0160
      3 C          64.8215   84.2681   14.2872 C.ar    1  UNL1        0.0175
      4 C          63.8033   84.1896   13.1885 C.ar    1  UNL1        0.0718
      5 C          63.0609   85.4221   12.7646 C.ar    1  UNL1        0.0730
      6 CL         62.0426   85.3437   11.6660 Cl      1  UNL1       -0.0809
      7 C          63.3368   86.7331   13.4393 C.ar    1  UNL1        0.0273
      8 N          63.5274   82.8786   12.5138 N.am    1  UNL1       -0.2002
      9 C          63.6602   82.5970   11.0465 C.2     1  UNL1        0.2590
     10 O          64.0922   83.5770    9.9962 O.2     1  UNL1       -0.2691
     11 C          63.2852   81.1634   10.8138 C.ar    1  UNL1        0.0617
     12 C          63.2286   80.3303    9.5677 C.ar    1  UNL1        0.0254
     13 C          62.8074   78.8928    9.6452 C.ar    1  UNL1        0.0990
     14 N          62.4428   78.2884   10.9687 N.ar    1  UNL1       -0.2422
     15 C          62.4994   79.1215   12.2148 C.ar    1  UNL1        0.1035
     16 C          62.9206   80.5590   12.1373 C.ar    1  UNL1        0.0778
     17 C          63.0703   81.6190   13.1880 C.2     1  UNL1        0.2604
     18 O          62.8088   81.4493   14.6552 O.2     1  UNL1       -0.2691
     19 C          64.4269   89.4076   14.4665 C.2     1  UNL1        0.2839
     20 O          63.9470   89.3818   13.0455 O.2     1  UNL1       -0.2665
     21 N          64.6309   88.1225   15.2127 N.am    1  UNL1       -0.2778
     22 H          64.9459   88.1395   16.1453 H       1  UNL1        0.1553
     23 C          67.0693   91.2719   14.0283 C.3     1  UNL1        0.0345
     24 C          65.9174   91.5755   14.9397 C.ar    1  UNL1        0.0204
     25 C          65.7777   92.7894   15.8099 C.ar    1  UNL1        0.0396
     26 C          64.4769   92.6827   16.5491 C.ar    1  UNL1        0.1795
     27 O          63.8125   91.4029   16.1358 O.2     1  UNL1       -0.4461
     28 C          64.7028   90.7186   15.1412 C.ar    1  UNL1        0.1948
@<TRIPOS>BOND
     1    23    24    1
     2    24    25   ar
     3    25    26   ar
     4    26    27   ar
     5    27    28   ar
     6    28    19    1
     7    19    20    2
     8    19    21   am
     9    21     1    1
    10     1     2   ar
    11     2     3   ar
    12     3     4   ar
    13     4     8    1
    14     8     9   am
    15     9    10    2
    16     9    11    1
    17    11    12   ar
    18    12    13   ar
    19    13    14   ar
    20    14    15   ar
    21    15    16   ar
    22    16    17    1
    23    17    18    2
    24     4     5   ar
    25     5     6    1
    26     5     7   ar
    27    28    24   ar
    28     7     1   ar
    29    17     8   am
    30    16    11   ar
    31    21    22    1
@<TRIPOS>MOLECULE
*****
 28 31 0 0 0
SMALL
GASTEIGER

@<TRIPOS>ATOM
      1 C          55.6534   94.8452   -1.6710 C.ar    1  UNL1        0.0515
      2 C          56.1642   93.4349   -1.6751 C.ar    1  UNL1        0.0160
      3 C          57.5617   93.1420   -1.2155 C.ar    1  UNL1        0.0175
      4 C          58.4484   94.2594   -0.7517 C.ar    1  UNL1        0.0718
      5 C          57.9376   95.6697   -0.7476 C.ar    1  UNL1        0.0730
      6 CL         58.8243   96.7873   -0.2839 Cl      1  UNL1       -0.0809
      7 C          56.5401   95.9627   -1.2073 C.ar    1  UNL1        0.0273
      8 N          59.8458   93.9665   -0.2921 N.am    1  UNL1       -0.2002
      9 C          60.2343   93.3917    1.0378 C.2     1  UNL1        0.2590
     10 O          59.2935   93.0088    2.1416 O.2     1  UNL1       -0.2691
     11 C          61.7288   93.2669    1.0702 C.ar    1  UNL1        0.0617
     12 C          62.6714   92.7644    2.1232 C.ar    1  UNL1        0.0254
     13 C          64.1492   92.7596    1.8662 C.ar    1  UNL1        0.0990
     14 N          64.6844   93.2574    0.5563 N.ar    1  UNL1       -0.2422
     15 C          63.7417   93.7599   -0.4967 C.ar    1  UNL1        0.1035
     16 C          62.2640   93.7647   -0.2397 C.ar    1  UNL1        0.0778
     17 C          61.1002   94.1970   -1.0816 C.2     1  UNL1        0.2604
     18 O          61.1774   94.7609   -2.4695 O.2     1  UNL1       -0.2691
     19 C          54.0268   96.0413   -3.3061 C.2     1  UNL1        0.2839
     20 O          55.1952   96.6516   -4.0220 O.2     1  UNL1       -0.2665
     21 N          54.2559   95.1381   -2.1306 N.am    1  UNL1       -0.2778
     22 H          53.4891   94.7376   -1.6608 H       1  UNL1        0.1553
     23 C          53.0135   96.1660   -6.4056 C.3     1  UNL1        0.0345
     24 C          52.1636   96.3915   -5.1905 C.ar    1  UNL1        0.0204
     25 C          50.6986   96.7140   -5.1866 C.ar    1  UNL1        0.0396
     26 C          50.2590   96.8559   -3.7595 C.ar    1  UNL1        0.1795
     27 O          51.4523   96.6212   -2.8814 O.2     1  UNL1       -0.4461
     28 C          52.6293   96.3342   -3.7657 C.ar    1  UNL1        0.1948
@<TRIPOS>BOND
     1    23    24    1
     2    24    25   ar
     3    25    26   ar
     4    26    27   ar
     5    27    28   ar
     6    28    19    1
     7    19    20    2
     8    19    21   am
     9    21     1    1
    10     1     2   ar
    11     2     3   ar
    12     3     4   ar
    13     4     8    1
    14     8     9   am
    15     9    10    2
    16     9    11    1
    17    11    12   ar
    18    12    13   ar
    19    13    14   ar
    20    14    15   ar
    21    15    16   ar
    22    16    17    1
    23    17    18    2
    24     4     5   ar
    25     5     6    1
    26     5     7   ar
    27    28    24   ar
    28     7     1   ar
    29    17     8   am
    30    16    11   ar
    31    21    22    1
@<TRIPOS>MOLECULE
*****
 28 31 0 0 0
SMALL
GASTEIGER

@<TRIPOS>ATOM
      1 C          64.3475   91.1498   12.8568 C.ar    1  UNL1        0.0515
      2 C          65.0224   90.3417   13.9251 C.ar    1  UNL1        0.0160
      3 C          64.7044   88.8836   14.0761 C.ar    1  UNL1        0.0175
      4 C          63.7114   88.2336   13.1589 C.ar    1  UNL1        0.0718
      5 C          63.0364   89.0418   12.0906 C.ar    1  UNL1        0.0730
      6 CL         62.0434   88.3918   11.1732 Cl      1  UNL1       -0.0809
      7 C          63.3545   90.4999   11.9395 C.ar    1  UNL1        0.0273
      8 N          63.3933   86.7755   13.3099 N.am    1  UNL1       -0.2002
      9 C          63.3613   86.0090   14.5988 C.2     1  UNL1        0.2590
     10 O          63.6417   86.5660   15.9631 O.2     1  UNL1       -0.2691
     11 C          62.9996   84.5877   14.2841 C.ar    1  UNL1        0.0617
     12 C          62.8199   83.3809   15.1566 C.ar    1  UNL1        0.0254
     13 C          62.4487   82.0623   14.5456 C.ar    1  UNL1        0.0990
     14 N          62.2572   81.9504   13.0621 N.ar    1  UNL1       -0.2422
     15 C          62.4369   83.1571   12.1896 C.ar    1  UNL1        0.1035
     16 C          62.8081   84.4758   12.8005 C.ar    1  UNL1        0.0778
     17 C          63.0514   85.8280   12.1985 C.2     1  UNL1        0.2604
     18 O          62.9676   86.1721   10.7409 O.2     1  UNL1       -0.2691
     19 C          65.7874   93.0419   11.8097 C.2     1  UNL1        0.2839
     20 O          66.5913   92.0178   11.0646 O.2     1  UNL1       -0.2665
     21 N          64.6655   92.6079   12.7058 N.am    1  UNL1       -0.2778
     22 H          64.1380   93.2800   13.1948 H       1  UNL1        0.1553
     23 C          66.7744   94.5163    9.0708 C.3     1  UNL1        0.0345
     24 C          66.5592   95.1777   10.3997 C.ar    1  UNL1        0.0204
     25 C          66.7598   96.6330   10.7031 C.ar    1  UNL1        0.0396
     26 C          66.4301   96.8547   12.1495 C.ar    1  UNL1        0.1795
     27 O          66.0257   95.5365   12.7401 O.2     1  UNL1       -0.4461
     28 C          66.1055   94.5000   11.6587 C.ar    1  UNL1        0.1948
@<TRIPOS>BOND
     1    23    24    1
     2    24    25   ar
     3    25    26   ar
     4    26    27   ar
     5    27    28   ar
     6    28    19    1
     7    19    20    2
     8    19    21   am
     9    21     1    1
    10     1     2   ar
    11     2     3   ar
    12     3     4   ar
    13     4     8    1
    14     8     9   am
    15     9    10    2
    16     9    11    1
    17    11    12   ar
    18    12    13   ar
    19    13    14   ar
    20    14    15   ar
    21    15    16   ar
    22    16    17    1
    23    17    18    2
    24     4     5   ar
    25     5     6    1
    26     5     7   ar
    27    28    24   ar
    28     7     1   ar
    29    17     8   am
    30    16    11   ar
    31    21    22    1
@<TRIPOS>MOLECULE
*****
 28 31 0 0 0
SMALL
GASTEIGER

@<TRIPOS>ATOM
      1 C          55.7811   95.4647   -1.6189 C.ar    1  UNL1        0.0515
      2 C          56.7665   96.5407   -1.2706 C.ar    1  UNL1        0.0160
      3 C          58.1562   96.1745   -0.8411 C.ar    1  UNL1        0.0175
      4 C          58.5607   94.7324   -0.7599 C.ar    1  UNL1        0.0718
      5 C          57.5754   93.6564   -1.1082 C.ar    1  UNL1        0.0730
      6 CL         57.9798   92.2142   -1.0271 Cl      1  UNL1       -0.0809
      7 C          56.1856   94.0226   -1.5377 C.ar    1  UNL1        0.0273
      8 N          59.9505   94.3663   -0.3305 N.am    1  UNL1       -0.2002
      9 C          61.2029   94.5699   -1.1304 C.2     1  UNL1        0.2590
     10 O          61.2855   95.1754   -2.5002 O.2     1  UNL1       -0.2691
     11 C          62.3583   94.0617   -0.3200 C.ar    1  UNL1        0.0617
     12 C          63.8311   94.0035   -0.5985 C.ar    1  UNL1        0.0254
     13 C          64.7654   93.4275    0.4239 C.ar    1  UNL1        0.0990
     14 N          64.2271   92.9098    1.7247 N.ar    1  UNL1       -0.2422
     15 C          62.7543   92.9680    2.0032 C.ar    1  UNL1        0.1035
     16 C          61.8200   93.5439    0.9808 C.ar    1  UNL1        0.0778
     17 C          60.3318   93.7322    0.9743 C.2     1  UNL1        0.2604
     18 O          59.3904   93.3529    2.0788 O.2     1  UNL1       -0.2691
     19 C          54.0518   95.9030   -3.5076 C.2     1  UNL1        0.2839
     20 O          55.1021   95.6090   -4.5375 O.2     1  UNL1       -0.2665
     21 N          54.3913   95.8308   -2.0484 N.am    1  UNL1       -0.2778
     22 H          53.7020   96.0238   -1.3724 H       1  UNL1        0.1553
     23 C          53.0357   96.2963   -6.5837 C.3     1  UNL1        0.0345
     24 C          52.1950   96.4499   -5.3511 C.ar    1  UNL1        0.0204
     25 C          50.7396   96.8113   -5.3158 C.ar    1  UNL1        0.0396
     26 C          50.3071   96.8539   -3.8801 C.ar    1  UNL1        0.1795
     27 O          51.4953   96.5188   -3.0281 O.2     1  UNL1       -0.4461
     28 C          52.6620   96.2691   -3.9371 C.ar    1  UNL1        0.1948
@<TRIPOS>BOND
     1    23    24    1
     2    24    25   ar
     3    25    26   ar
     4    26    27   ar
     5    27    28   ar
     6    28    19    1
     7    19    20    2
     8    19    21   am
     9    21     1    1
    10     1     2   ar
    11     2     3   ar
    12     3     4   ar
    13     4     8    1
    14     8     9   am
    15     9    10    2
    16     9    11    1
    17    11    12   ar
    18    12    13   ar
    19    13    14   ar
    20    14    15   ar
    21    15    16   ar
    22    16    17    1
    23    17    18    2
    24     4     5   ar
    25     5     6    1
    26     5     7   ar
    27    28    24   ar
    28     7     1   ar
    29    17     8   am
    30    16    11   ar
    31    21    22    1
@<TRIPOS>MOLECULE
*****
 28 31 0 0 0
SMALL
GASTEIGER

@<TRIPOS>ATOM
      1 C          63.9541   90.3647   12.6764 C.ar    1  UNL1        0.0515
      2 C          64.5677   89.5952   13.8083 C.ar    1  UNL1        0.0160
      3 C          64.2998   88.1260   13.9486 C.ar    1  UNL1        0.0175
      4 C          63.4182   87.4264   12.9570 C.ar    1  UNL1        0.0718
      5 C          62.8046   88.1959   11.8251 C.ar    1  UNL1        0.0730
      6 CL         61.9229   87.4963   10.8335 Cl      1  UNL1       -0.0809
      7 C          63.0725   89.6651   11.6848 C.ar    1  UNL1        0.0273
      8 N          63.1503   85.9572   13.0973 N.am    1  UNL1       -0.2002
      9 C          63.0490   84.9682   11.9741 C.2     1  UNL1        0.2590
     10 O          63.1978   85.2747   10.5133 O.2     1  UNL1       -0.2691
     11 C          62.7727   83.6188   12.5681 C.ar    1  UNL1        0.0617
     12 C          62.5754   82.2690   11.9444 C.ar    1  UNL1        0.0254
     13 C          62.3086   81.0741   12.8111 C.ar    1  UNL1        0.0990
     14 N          62.2391   81.2291   14.3014 N.ar    1  UNL1       -0.2422
     15 C          62.4364   82.5790   14.9251 C.ar    1  UNL1        0.1035
     16 C          62.7032   83.7738   14.0584 C.ar    1  UNL1        0.0778
     17 C          62.9366   85.2190   14.3855 C.2     1  UNL1        0.2604
     18 O          62.9533   85.8204   15.7596 O.2     1  UNL1       -0.2691
     19 C          65.2607   92.3178   11.5681 C.2     1  UNL1        0.2839
     20 O          66.0315   91.3324   10.7404 O.2     1  UNL1       -0.2665
     21 N          64.2220   91.8339   12.5361 N.am    1  UNL1       -0.2778
     22 H          63.7162   92.4806   13.0793 H       1  UNL1        0.1553
     23 C          66.7160   94.2223   13.7827 C.3     1  UNL1        0.0345
     24 C          66.1976   94.6624   12.4458 C.ar    1  UNL1        0.0204
     25 C          66.2571   96.0552   11.8920 C.ar    1  UNL1        0.0396
     26 C          65.6249   96.0405   10.5318 C.ar    1  UNL1        0.1795
     27 O          65.1747   94.6387   10.2449 O.2     1  UNL1       -0.4461
     28 C          65.5286   93.7870   11.4278 C.ar    1  UNL1        0.1948
@<TRIPOS>BOND
     1    23    24    1
     2    24    25   ar
     3    25    26   ar
     4    26    27   ar
     5    27    28   ar
     6    28    19    1
     7    19    20    2
     8    19    21   am
     9    21     1    1
    10     1     2   ar
    11     2     3   ar
    12     3     4   ar
    13     4     8    1
    14     8     9   am
    15     9    10    2
    16     9    11    1
    17    11    12   ar
    18    12    13   ar
    19    13    14   ar
    20    14    15   ar
    21    15    16   ar
    22    16    17    1
    23    17    18    2
    24     4     5   ar
    25     5     6    1
    26     5     7   ar
    27    28    24   ar
    28     7     1   ar
    29    17     8   am
    30    16    11   ar
    31    21    22    1
