@<TRIPOS>MOLECULE
*****
 36 38 0 0 0
SMALL
GASTEIGER

@<TRIPOS>ATOM
      1 S          63.7320   85.2308   15.4813 S.O2    1  UNL1        0.0456
      2 O          65.2128   85.2438   15.2426 O.2     1  UNL1       -0.1572
      3 O          62.2512   85.2178   15.7199 O.2     1  UNL1       -0.1572
      4 N          63.7191   86.7308   15.4827 N.3     1  UNL1       -0.1592
      5 C          64.2434   87.4864   14.2978 C.3     1  UNL1        0.0979
      6 C          64.2305   88.9864   14.2992 C.3     1  UNL1        0.0487
      7 C          63.6933   89.7306   15.4856 C.3     1  UNL1        0.1186
      8 C          63.1690   88.9750   16.6705 C.3     1  UNL1        0.0487
      9 C          63.1819   87.4751   16.6690 C.3     1  UNL1        0.0979
     10 O          63.6804   91.2306   15.4870 O.3     1  UNL1       -0.3514
     11 C          64.9713   91.9918   15.4227 C.3     1  UNL1        0.1693
     12 C          65.7459   92.0476   14.1393 C.ar    1  UNL1        0.0179
     13 C          65.0276   92.2469   12.8377 C.ar    1  UNL1       -0.0001
     14 C          65.8022   92.3027   11.5545 C.ar    1  UNL1        0.0112
     15 C          67.2953   92.1592   11.5729 C.ar    1  UNL1        0.0585
     16 CL         68.0699   92.2150   10.2895 Cl      1  UNL1       -0.0822
     17 C          68.0136   91.9600   12.8745 C.ar    1  UNL1        0.0225
     18 C          67.2390   91.9042   14.1577 C.ar    1  UNL1        0.0569
     19 CL         67.9573   91.7049   15.4594 Cl      1  UNL1       -0.0825
     20 C          63.7449   83.7309   15.4798 C.3     1  UNL1        0.1913
     21 C          63.6091   82.9809   14.1879 C.3     1  UNL1        0.1293
     22 N          62.8396   81.6941   14.1451 N.am    1  UNL1       -0.1645
     23 O          63.5696   80.3857   14.0719 O.3     1  UNL1       -0.2914
     24 C          61.3400   81.7155   14.1754 C.2     1  UNL1        0.3268
     25 O          60.5705   80.4286   14.1325 O.2     1  UNL1       -0.2627
     26 H          64.5257   80.5491   14.0605 H       1  UNL1        0.2417
     27 C          64.2428   83.5178   12.9388 C.3     1  UNL1        0.0318
     28 C          63.4963   82.0477   10.9309 C.3     1  UNL1        0.0080
     29 C          63.5392   83.3787   11.6214 C.3     1  UNL1        0.0604
     30 C          62.8785   84.5705   10.9945 C.ar    1  UNL1        0.1390
     31 N          63.0764   84.8566    9.5354 N.ar    1  UNL1       -0.2268
     32 C          62.4156   86.0484    8.9084 C.ar    1  UNL1        0.1314
     33 C          61.5570   86.9541    9.7406 C.ar    1  UNL1        0.1783
     34 F          60.8963   88.1459    9.1137 F       1  UNL1       -0.2009
     35 C          61.3592   86.6680   11.1998 C.ar    1  UNL1        0.1314
     36 N          62.0199   85.4762   11.8267 N.ar    1  UNL1       -0.2268
@<TRIPOS>BOND
     1    29    28    1
     2    29    27    1
     3    21    27    1
     4    21    20    1
     5    20     1    1
     6     1     2    2
     7     1     3    2
     8     1     4    1
     9     4     5    1
    10     5     6    1
    11     6     7    1
    12     7    10    1
    13    10    11    1
    14    11    12    1
    15    12    13   ar
    16    13    14   ar
    17    14    15   ar
    18    15    16    1
    19    15    17   ar
    20    17    18   ar
    21    18    19    1
    22     7     8    1
    23     8     9    1
    24    21    22    1
    25    22    23    1
    26    22    24   am
    27    24    25    2
    28    29    30    1
    29    30    31   ar
    30    31    32   ar
    31    32    33   ar
    32    33    34    1
    33    33    35   ar
    34    35    36   ar
    35     9     4    1
    36    36    30   ar
    37    18    12   ar
    38    23    26    1
@<TRIPOS>MOLECULE
*****
 36 38 0 0 0
SMALL
GASTEIGER

@<TRIPOS>ATOM
      1 S          64.0420   85.3224   14.6540 S.O2    1  UNL1        0.0456
      2 O          62.5528   85.1691   14.5608 O.2     1  UNL1       -0.1572
      3 O          65.5312   85.4756   14.7472 O.2     1  UNL1       -0.1572
      4 N          63.9076   86.7918   14.3838 N.3     1  UNL1       -0.1592
      5 C          64.0396   87.7762   15.5079 C.3     1  UNL1        0.0979
      6 C          63.9052   89.2455   15.2376 C.3     1  UNL1        0.0487
      7 C          63.6390   89.7304   13.8434 C.3     1  UNL1        0.1186
      8 C          63.5070   88.7460   12.7193 C.3     1  UNL1        0.0487
      9 C          63.6414   87.2767   12.9896 C.3     1  UNL1        0.0979
     10 O          63.5046   91.1998   13.5732 O.3     1  UNL1       -0.3514
     11 C          64.6728   91.9739   13.0384 C.3     1  UNL1        0.1693
     12 C          65.8934   92.1719   13.8876 C.ar    1  UNL1        0.0179
     13 C          65.7536   92.3626   15.3688 C.ar    1  UNL1       -0.0001
     14 C          66.9742   92.5606   16.2179 C.ar    1  UNL1        0.0112
     15 C          68.3345   92.5679   15.5858 C.ar    1  UNL1        0.0585
     16 CL         69.5550   92.7659   16.4350 Cl      1  UNL1       -0.0822
     17 C          68.4742   92.3772   14.1046 C.ar    1  UNL1        0.0225
     18 C          67.2537   92.1792   13.2555 C.ar    1  UNL1        0.0569
     19 CL         67.3934   91.9885   11.7742 Cl      1  UNL1       -0.0825
     20 C          64.1763   83.8531   14.9242 C.3     1  UNL1        0.1913
     21 C          63.9009   82.8616   13.8328 C.3     1  UNL1        0.1293
     22 N          63.0106   81.6836   14.0967 N.am    1  UNL1       -0.1645
     23 O          63.6095   80.3283   14.3306 O.3     1  UNL1       -0.2914
     24 C          61.5214   81.8609   14.1268 C.2     1  UNL1        0.3268
     25 O          60.6311   80.6828   14.3908 O.2     1  UNL1       -0.2627
     26 H          64.5761   80.3884   14.2776 H       1  UNL1        0.2417
     27 C          64.5160   83.0480   12.4774 C.3     1  UNL1        0.0318
     28 C          63.4886   81.5013   10.6602 C.3     1  UNL1        0.0080
     29 C          63.6812   82.8696   11.2440 C.3     1  UNL1        0.0604
     30 C          63.0390   84.0594   10.5945 C.ar    1  UNL1        0.1390
     31 N          62.0028   84.8505   11.3363 N.ar    1  UNL1       -0.2268
     32 C          61.3605   86.0404   10.6867 C.ar    1  UNL1        0.1314
     33 C          61.7544   86.4390    9.2954 C.ar    1  UNL1        0.1783
     34 F          61.1122   87.6288    8.6458 F       1  UNL1       -0.2009
     35 C          62.7907   85.6478    8.5535 C.ar    1  UNL1        0.1314
     36 N          63.4329   84.4580    9.2031 N.ar    1  UNL1       -0.2268
@<TRIPOS>BOND
     1    29    28    1
     2    29    27    1
     3    21    27    1
     4    21    20    1
     5    20     1    1
     6     1     2    2
     7     1     3    2
     8     1     4    1
     9     4     5    1
    10     5     6    1
    11     6     7    1
    12     7    10    1
    13    10    11    1
    14    11    12    1
    15    12    13   ar
    16    13    14   ar
    17    14    15   ar
    18    15    16    1
    19    15    17   ar
    20    17    18   ar
    21    18    19    1
    22     7     8    1
    23     8     9    1
    24    21    22    1
    25    22    23    1
    26    22    24   am
    27    24    25    2
    28    29    30    1
    29    30    31   ar
    30    31    32   ar
    31    32    33   ar
    32    33    34    1
    33    33    35   ar
    34    35    36   ar
    35     9     4    1
    36    36    30   ar
    37    18    12   ar
    38    23    26    1
@<TRIPOS>MOLECULE
*****
 36 38 0 0 0
SMALL
GASTEIGER

@<TRIPOS>ATOM
      1 S          61.1042   89.4954   10.9781 S.O2    1  UNL1        0.0456
      2 O          61.5990   89.5661    9.5639 O.2     1  UNL1       -0.1572
      3 O          60.6094   89.4247   12.3924 O.2     1  UNL1       -0.1572
      4 N          62.3394   90.2066   11.4457 N.3     1  UNL1       -0.1592
      5 C          63.0991   91.0901   10.5012 C.3     1  UNL1        0.0979
      6 C          64.3343   91.8012   10.9688 C.3     1  UNL1        0.0487
      7 C          64.8097   91.6288   12.3810 C.3     1  UNL1        0.1186
      8 C          64.0499   90.7454   13.3256 C.3     1  UNL1        0.0487
      9 C          62.8148   90.0343   12.8579 C.3     1  UNL1        0.0979
     10 O          66.0449   92.3400   12.8486 O.3     1  UNL1       -0.3514
     11 C          67.1818   92.5721   11.8982 C.3     1  UNL1        0.1693
     12 C          67.0787   93.6428   10.8526 C.ar    1  UNL1        0.0179
     13 C          66.3493   94.9182   11.1546 C.ar    1  UNL1       -0.0001
     14 C          66.2462   95.9888   10.1091 C.ar    1  UNL1        0.0112
     15 C          66.8726   95.7841    8.7616 C.ar    1  UNL1        0.0585
     16 CL         66.7695   96.8548    7.7161 Cl      1  UNL1       -0.0822
     17 C          67.6021   94.5087    8.4597 C.ar    1  UNL1        0.0225
     18 C          67.7052   93.4381    9.5052 C.ar    1  UNL1        0.0569
     19 CL         68.4347   92.1626    9.2032 Cl      1  UNL1       -0.0825
     20 C          59.8691   88.7843   10.5105 C.3     1  UNL1        0.1913
     21 C          59.9851   87.6089    9.5858 C.3     1  UNL1        0.1293
     22 N          59.6029   87.7498    8.1422 N.am    1  UNL1       -0.1645
     23 O          59.2864   86.5305    7.3277 O.3     1  UNL1       -0.2914
     24 C          59.5371   89.1099    7.5130 C.2     1  UNL1        0.3268
     25 O          59.1548   89.2507    6.0693 O.2     1  UNL1       -0.2627
     26 H          59.3759   85.7394    7.8817 H       1  UNL1        0.2417
     27 C          60.4833   86.2926   10.1048 C.3     1  UNL1        0.0318
     28 C          62.6094   86.1137    8.6222 C.3     1  UNL1        0.0080
     29 C          61.9278   85.9216    9.9446 C.3     1  UNL1        0.0604
     30 C          62.6908   85.3585   11.1068 C.ar    1  UNL1        0.1390
     31 N          63.3394   84.0105   10.9958 N.ar    1  UNL1       -0.2268
     32 C          64.1024   83.4473   12.1580 C.ar    1  UNL1        0.1314
     33 C          64.2169   84.2321   13.4312 C.ar    1  UNL1        0.1783
     34 F          64.9799   83.6690   14.5933 F       1  UNL1       -0.2009
     35 C          63.5683   85.5802   13.5421 C.ar    1  UNL1        0.1314
     36 N          62.8053   86.1433   12.3799 N.ar    1  UNL1       -0.2268
@<TRIPOS>BOND
     1    29    28    1
     2    29    27    1
     3    21    27    1
     4    21    20    1
     5    20     1    1
     6     1     2    2
     7     1     3    2
     8     1     4    1
     9     4     5    1
    10     5     6    1
    11     6     7    1
    12     7    10    1
    13    10    11    1
    14    11    12    1
    15    12    13   ar
    16    13    14   ar
    17    14    15   ar
    18    15    16    1
    19    15    17   ar
    20    17    18   ar
    21    18    19    1
    22     7     8    1
    23     8     9    1
    24    21    22    1
    25    22    23    1
    26    22    24   am
    27    24    25    2
    28    29    30    1
    29    30    31   ar
    30    31    32   ar
    31    32    33   ar
    32    33    34    1
    33    33    35   ar
    34    35    36   ar
    35     9     4    1
    36    36    30   ar
    37    18    12   ar
    38    23    26    1
@<TRIPOS>MOLECULE
*****
 36 38 0 0 0
SMALL
GASTEIGER

@<TRIPOS>ATOM
      1 S          62.0392   88.5341   11.5603 S.O2    1  UNL1        0.0456
      2 O          62.7737   87.3947   12.2021 O.2     1  UNL1       -0.1572
      3 O          61.3046   89.6736   10.9184 O.2     1  UNL1       -0.1572
      4 N          62.9570   89.5077   12.2383 N.3     1  UNL1       -0.1592
      5 C          63.7093   89.0968   13.4693 C.3     1  UNL1        0.0979
      6 C          64.6271   90.0704   14.1472 C.3     1  UNL1        0.0487
      7 C          64.7926   91.4549   13.5943 C.3     1  UNL1        0.1186
      8 C          64.0404   91.8658   12.3634 C.3     1  UNL1        0.0487
      9 C          63.1226   90.8922   11.6854 C.3     1  UNL1        0.0979
     10 O          65.7105   92.4285   14.2723 O.3     1  UNL1       -0.3514
     11 C          66.3652   93.5197   13.4784 C.3     1  UNL1        0.1693
     12 C          66.9848   93.2108   12.1476 C.ar    1  UNL1        0.0179
     13 C          67.8756   92.0136   11.9949 C.ar    1  UNL1       -0.0001
     14 C          68.4951   91.7047   10.6642 C.ar    1  UNL1        0.0112
     15 C          68.2238   92.5929    9.4863 C.ar    1  UNL1        0.0585
     16 CL         68.8433   92.2839    8.1556 Cl      1  UNL1       -0.0822
     17 C          67.3330   93.7900    9.6390 C.ar    1  UNL1        0.0225
     18 C          66.7135   94.0990   10.9697 C.ar    1  UNL1        0.0569
     19 CL         65.8227   95.2961   11.1225 Cl      1  UNL1       -0.0825
     20 C          61.1214   87.5605   10.8823 C.3     1  UNL1        0.1913
     21 C          61.3198   87.2269    9.4334 C.3     1  UNL1        0.1293
     22 N          60.1897   87.3994    8.4624 N.am    1  UNL1       -0.1645
     23 O          59.3754   86.2123    8.0406 O.3     1  UNL1       -0.2914
     24 C          59.8737   88.7590    7.9131 C.2     1  UNL1        0.3268
     25 O          58.7435   88.9315    6.9421 O.2     1  UNL1       -0.2627
     26 H          59.7090   85.4171    8.4848 H       1  UNL1        0.2417
     27 C          62.6486   86.7207    8.9555 C.3     1  UNL1        0.0318
     28 C          62.7379   84.6885    7.3392 C.3     1  UNL1        0.0080
     29 C          62.8529   85.2527    8.7243 C.3     1  UNL1        0.0604
     30 C          63.1721   84.3490    9.8781 C.ar    1  UNL1        0.1390
     31 N          62.3964   84.4629   11.1569 N.ar    1  UNL1       -0.2268
     32 C          62.7156   83.5592   12.3108 C.ar    1  UNL1        0.1314
     33 C          63.8105   82.5416   12.1859 C.ar    1  UNL1        0.1783
     34 F          64.1297   81.6378   13.3397 F       1  UNL1       -0.2009
     35 C          64.5863   82.4277   10.9070 C.ar    1  UNL1        0.1314
     36 N          64.2670   83.3314    9.7532 N.ar    1  UNL1       -0.2268
@<TRIPOS>BOND
     1    29    28    1
     2    29    27    1
     3    21    27    1
     4    21    20    1
     5    20     1    1
     6     1     2    2
     7     1     3    2
     8     1     4    1
     9     4     5    1
    10     5     6    1
    11     6     7    1
    12     7    10    1
    13    10    11    1
    14    11    12    1
    15    12    13   ar
    16    13    14   ar
    17    14    15   ar
    18    15    16    1
    19    15    17   ar
    20    17    18   ar
    21    18    19    1
    22     7     8    1
    23     8     9    1
    24    21    22    1
    25    22    23    1
    26    22    24   am
    27    24    25    2
    28    29    30    1
    29    30    31   ar
    30    31    32   ar
    31    32    33   ar
    32    33    34    1
    33    33    35   ar
    34    35    36   ar
    35     9     4    1
    36    36    30   ar
    37    18    12   ar
    38    23    26    1
@<TRIPOS>MOLECULE
*****
 36 38 0 0 0
SMALL
GASTEIGER

@<TRIPOS>ATOM
      1 S          64.0323   90.0433   15.0787 S.O2    1  UNL1        0.0456
      2 O          63.4177   90.4276   16.3919 O.2     1  UNL1       -0.1572
      3 O          64.6470   89.6590   13.7655 O.2     1  UNL1       -0.1572
      4 N          63.8582   88.5934   15.4215 N.3     1  UNL1       -0.1592
      5 C          64.4396   87.5368   14.5297 C.3     1  UNL1        0.0979
      6 C          64.2655   86.0869   14.8726 C.3     1  UNL1        0.0487
      7 C          63.5098   85.6937   16.1072 C.3     1  UNL1        0.1186
      8 C          62.9284   86.7503   16.9991 C.3     1  UNL1        0.0487
      9 C          63.1026   88.2002   16.6562 C.3     1  UNL1        0.0979
     10 O          63.3357   84.2438   16.4501 O.3     1  UNL1       -0.3514
     11 C          62.4255   83.3823   15.6259 C.3     1  UNL1        0.1693
     12 C          62.8233   82.9873   14.2345 C.ar    1  UNL1        0.0179
     13 C          63.9163   83.7321   13.5269 C.ar    1  UNL1       -0.0001
     14 C          64.3140   83.3371   12.1357 C.ar    1  UNL1        0.0112
     15 C          63.6188   82.1973   11.4519 C.ar    1  UNL1        0.0585
     16 CL         64.0166   81.8023   10.0605 Cl      1  UNL1       -0.0822
     17 C          62.5258   81.4525   12.1594 C.ar    1  UNL1        0.0225
     18 C          62.1281   81.8475   13.5507 C.ar    1  UNL1        0.0569
     19 CL         61.0351   81.1027   14.2584 Cl      1  UNL1       -0.0825
     20 C          64.2064   91.4932   14.7359 C.3     1  UNL1        0.1913
     21 C          65.5709   92.0307   14.4207 C.3     1  UNL1        0.1293
     22 N          66.3328   92.7989   15.4596 N.am    1  UNL1       -0.1645
     23 O          65.8384   92.8393   16.8753 O.3     1  UNL1       -0.2914
     24 C          67.5890   93.5268   15.0829 C.2     1  UNL1        0.3268
     25 O          68.3509   94.2951   16.1219 O.2     1  UNL1       -0.2627
     26 H          65.0214   92.3213   16.9473 H       1  UNL1        0.2417
     27 C          66.1734   91.8000   13.0665 C.3     1  UNL1        0.0318
     28 C          64.1951   91.7681   11.3827 C.3     1  UNL1        0.0080
     29 C          65.5000   92.3472   11.8429 C.3     1  UNL1        0.0604
     30 C          66.1316   93.4735   11.0796 C.ar    1  UNL1        0.1390
     31 N          65.8483   94.8944   11.4680 N.ar    1  UNL1       -0.2268
     32 C          66.4798   96.0207   10.7047 C.ar    1  UNL1        0.1314
     33 C          67.3946   95.7261    9.5530 C.ar    1  UNL1        0.1783
     34 F          68.0262   96.8524    8.7897 F       1  UNL1       -0.2009
     35 C          67.6779   94.3052    9.1647 C.ar    1  UNL1        0.1314
     36 N          67.0464   93.1789    9.9280 N.ar    1  UNL1       -0.2268
@<TRIPOS>BOND
     1    29    28    1
     2    29    27    1
     3    21    27    1
     4    21    20    1
     5    20     1    1
     6     1     2    2
     7     1     3    2
     8     1     4    1
     9     4     5    1
    10     5     6    1
    11     6     7    1
    12     7    10    1
    13    10    11    1
    14    11    12    1
    15    12    13   ar
    16    13    14   ar
    17    14    15   ar
    18    15    16    1
    19    15    17   ar
    20    17    18   ar
    21    18    19    1
    22     7     8    1
    23     8     9    1
    24    21    22    1
    25    22    23    1
    26    22    24   am
    27    24    25    2
    28    29    30    1
    29    30    31   ar
    30    31    32   ar
    31    32    33   ar
    32    33    34    1
    33    33    35   ar
    34    35    36   ar
    35     9     4    1
    36    36    30   ar
    37    18    12   ar
    38    23    26    1
@<TRIPOS>MOLECULE
*****
 36 38 0 0 0
SMALL
GASTEIGER

@<TRIPOS>ATOM
      1 S          63.5251   84.4851   15.4266 S.O2    1  UNL1        0.0456
      2 O          64.8258   84.5201   14.6802 O.2     1  UNL1       -0.1572
      3 O          62.2245   84.4500   16.1729 O.2     1  UNL1       -0.1572
      4 N          63.5997   85.9699   15.6261 N.3     1  UNL1       -0.1592
      5 C          62.9569   86.5985   16.8267 C.3     1  UNL1        0.0979
      6 C          63.0314   88.0833   17.0262 C.3     1  UNL1        0.0487
      7 C          63.7488   88.9395   16.0250 C.3     1  UNL1        0.1186
      8 C          64.3916   88.3109   14.8244 C.3     1  UNL1        0.0487
      9 C          64.3170   86.8261   14.6249 C.3     1  UNL1        0.0979
     10 O          63.8233   90.4243   16.2245 O.3     1  UNL1       -0.3514
     11 C          64.5454   91.2799   15.2263 C.3     1  UNL1        0.1693
     12 C          64.1383   91.2542   13.7828 C.ar    1  UNL1        0.0179
     13 C          62.8887   90.5353   13.3686 C.ar    1  UNL1       -0.0001
     14 C          62.4817   90.5097   11.9251 C.ar    1  UNL1        0.0112
     15 C          63.3243   91.2030   10.8959 C.ar    1  UNL1        0.0585
     16 CL         62.9172   91.1773    9.4523 Cl      1  UNL1       -0.0822
     17 C          64.5739   91.9219   11.3101 C.ar    1  UNL1        0.0225
     18 C          64.9809   91.9475   12.7535 C.ar    1  UNL1        0.0569
     19 CL         66.2306   92.6665   13.1678 Cl      1  UNL1       -0.0825
     20 C          63.4507   83.0003   15.2271 C.3     1  UNL1        0.1913
     21 C          62.9656   82.4423   13.9219 C.3     1  UNL1        0.1293
     22 N          63.1786   80.9928   13.6005 N.am    1  UNL1       -0.1645
     23 O          64.1346   80.1758   14.4183 O.3     1  UNL1       -0.2914
     24 C          62.4357   80.3601   12.4612 C.2     1  UNL1        0.3268
     25 O          62.6488   78.9105   12.1398 O.2     1  UNL1       -0.2627
     26 H          64.5272   80.7326   15.1087 H       1  UNL1        0.2417
     27 C          62.2674   83.3340   12.9383 C.3     1  UNL1        0.0318
     28 C          64.3386   83.3014   11.3701 C.3     1  UNL1        0.0080
     29 C          63.0210   83.8967   11.7698 C.3     1  UNL1        0.0604
     30 C          62.4571   85.0547   11.0010 C.ar    1  UNL1        0.1390
     31 N          61.5429   86.0314   11.6794 N.ar    1  UNL1       -0.2268
     32 C          60.9790   87.1894   10.9106 C.ar    1  UNL1        0.1314
     33 C          61.3294   87.3707    9.4634 C.ar    1  UNL1        0.1783
     34 F          60.7655   88.5287    8.6946 F       1  UNL1       -0.2009
     35 C          62.2436   86.3940    8.7850 C.ar    1  UNL1        0.1314
     36 N          62.8075   85.2360    9.5538 N.ar    1  UNL1       -0.2268
@<TRIPOS>BOND
     1    29    28    1
     2    29    27    1
     3    21    27    1
     4    21    20    1
     5    20     1    1
     6     1     2    2
     7     1     3    2
     8     1     4    1
     9     4     5    1
    10     5     6    1
    11     6     7    1
    12     7    10    1
    13    10    11    1
    14    11    12    1
    15    12    13   ar
    16    13    14   ar
    17    14    15   ar
    18    15    16    1
    19    15    17   ar
    20    17    18   ar
    21    18    19    1
    22     7     8    1
    23     8     9    1
    24    21    22    1
    25    22    23    1
    26    22    24   am
    27    24    25    2
    28    29    30    1
    29    30    31   ar
    30    31    32   ar
    31    32    33   ar
    32    33    34    1
    33    33    35   ar
    34    35    36   ar
    35     9     4    1
    36    36    30   ar
    37    18    12   ar
    38    23    26    1
@<TRIPOS>MOLECULE
*****
 36 38 0 0 0
SMALL
GASTEIGER

@<TRIPOS>ATOM
      1 S          64.3038   92.0025   11.5977 S.O2    1  UNL1        0.0456
      2 O          64.8217   92.0000   10.1900 O.2     1  UNL1       -0.1572
      3 O          63.7860   92.0051   13.0054 O.2     1  UNL1       -0.1572
      4 N          63.2869   90.9646   11.2254 N.3     1  UNL1       -0.1592
      5 C          62.7767   90.0086   12.2626 C.3     1  UNL1        0.0979
      6 C          61.7598   88.9707   11.8903 C.3     1  UNL1        0.0487
      7 C          61.2531   88.8888   10.4808 C.3     1  UNL1        0.1186
      8 C          61.7633   89.8448    9.4437 C.3     1  UNL1        0.0487
      9 C          62.7802   90.8827    9.8160 C.3     1  UNL1        0.0979
     10 O          60.2361   87.8508   10.1086 O.3     1  UNL1       -0.3514
     11 C          60.6556   86.6298    9.3450 C.3     1  UNL1        0.1693
     12 C          61.6603   85.6849    9.9347 C.ar    1  UNL1        0.0179
     13 C          61.7060   85.4686   11.4183 C.ar    1  UNL1       -0.0001
     14 C          62.7107   84.5237   12.0078 C.ar    1  UNL1        0.0112
     15 C          63.6697   83.7950   11.1138 C.ar    1  UNL1        0.0585
     16 CL         64.6744   82.8500   11.7035 Cl      1  UNL1       -0.0822
     17 C          63.6240   84.0112    9.6302 C.ar    1  UNL1        0.0225
     18 C          62.6193   84.9561    9.0406 C.ar    1  UNL1        0.0569
     19 CL         62.5736   85.1724    7.5570 Cl      1  UNL1       -0.0825
     20 C          65.3208   93.0404   11.9699 C.3     1  UNL1        0.1913
     21 C          66.7841   92.7289   11.8630 C.3     1  UNL1        0.1293
     22 N          67.5291   93.0502   10.6013 N.am    1  UNL1       -0.1645
     23 O          67.6745   94.4760   10.1586 O.3     1  UNL1       -0.2914
     24 C          68.1286   91.9457    9.7824 C.2     1  UNL1        0.3268
     25 O          68.8736   92.2671    8.5207 O.2     1  UNL1       -0.2627
     26 H          67.2326   95.0590   10.7955 H       1  UNL1        0.2417
     27 C          67.5026   92.0961   13.0177 C.3     1  UNL1        0.0318
     28 C          67.7091   93.3788   15.2677 C.3     1  UNL1        0.0080
     29 C          67.0315   92.3429   14.4203 C.3     1  UNL1        0.0604
     30 C          65.8830   91.5539   14.9755 C.ar    1  UNL1        0.1390
     31 N          65.6402   90.1505   14.5050 N.ar    1  UNL1       -0.2268
     32 C          64.4916   89.3614   15.0602 C.ar    1  UNL1        0.1314
     33 C          63.5859   89.9759   16.0860 C.ar    1  UNL1        0.1783
     34 F          62.4373   89.1869   16.6412 F       1  UNL1       -0.2009
     35 C          63.8287   91.3794   16.5565 C.ar    1  UNL1        0.1314
     36 N          64.9772   92.1683   16.0012 N.ar    1  UNL1       -0.2268
@<TRIPOS>BOND
     1    29    28    1
     2    29    27    1
     3    21    27    1
     4    21    20    1
     5    20     1    1
     6     1     2    2
     7     1     3    2
     8     1     4    1
     9     4     5    1
    10     5     6    1
    11     6     7    1
    12     7    10    1
    13    10    11    1
    14    11    12    1
    15    12    13   ar
    16    13    14   ar
    17    14    15   ar
    18    15    16    1
    19    15    17   ar
    20    17    18   ar
    21    18    19    1
    22     7     8    1
    23     8     9    1
    24    21    22    1
    25    22    23    1
    26    22    24   am
    27    24    25    2
    28    29    30    1
    29    30    31   ar
    30    31    32   ar
    31    32    33   ar
    32    33    34    1
    33    33    35   ar
    34    35    36   ar
    35     9     4    1
    36    36    30   ar
    37    18    12   ar
    38    23    26    1
@<TRIPOS>MOLECULE
*****
 36 38 0 0 0
SMALL
GASTEIGER

@<TRIPOS>ATOM
      1 S          61.4795   87.7403    9.8015 S.O2    1  UNL1        0.0456
      2 O          60.0883   87.2102    9.9847 O.2     1  UNL1       -0.1572
      3 O          62.8707   88.2705    9.6184 O.2     1  UNL1       -0.1572
      4 N          62.0323   86.3615   10.0098 N.3     1  UNL1       -0.1592
      5 C          61.7837   85.6410   11.3017 C.3     1  UNL1        0.0979
      6 C          62.3365   84.2623   11.5099 C.3     1  UNL1        0.0487
      7 C          63.1379   83.6040   10.4262 C.3     1  UNL1        0.1186
      8 C          63.3864   84.3244    9.1343 C.3     1  UNL1        0.0487
      9 C          62.8337   85.7032    8.9261 C.3     1  UNL1        0.0979
     10 O          63.6907   82.2251   10.6345 O.3     1  UNL1       -0.3514
     11 C          64.1532   81.8004   11.9966 C.3     1  UNL1        0.1693
     12 C          63.9955   82.7276   13.1652 C.ar    1  UNL1        0.0179
     13 C          64.9559   83.8640   13.3557 C.ar    1  UNL1       -0.0001
     14 C          64.7982   84.7912   14.5242 C.ar    1  UNL1        0.0112
     15 C          63.6803   84.5820   15.5022 C.ar    1  UNL1        0.0585
     16 CL         63.5226   85.5093   16.6707 Cl      1  UNL1       -0.0822
     17 C          62.7199   83.4456   15.3117 C.ar    1  UNL1        0.0225
     18 C          62.8776   82.5184   14.1432 C.ar    1  UNL1        0.0569
     19 CL         61.9172   81.3819   13.9526 Cl      1  UNL1       -0.0825
     20 C          60.9267   89.1191    9.5933 C.3     1  UNL1        0.1913
     21 C          60.8508   90.0784   10.7439 C.3     1  UNL1        0.1293
     22 N          59.5876   90.1903   11.5451 N.am    1  UNL1       -0.1645
     23 O          58.8135   91.4751   11.5494 O.3     1  UNL1       -0.2914
     24 C          59.0985   89.0173   12.3419 C.2     1  UNL1        0.3268
     25 O          57.8352   89.1292   13.1431 O.2     1  UNL1       -0.2627
     26 H          59.2634   92.1256   10.9878 H       1  UNL1        0.2417
     27 C          62.0381   90.9259   11.0934 C.3     1  UNL1        0.0318
     28 C          62.9086   89.0702   12.6900 C.3     1  UNL1        0.0080
     29 C          63.0108   90.4606   12.1362 C.3     1  UNL1        0.0604
     30 C          64.0855   91.3855   12.6253 C.ar    1  UNL1        0.1390
     31 N          64.4674   91.3910   14.0758 N.ar    1  UNL1       -0.2268
     32 C          65.5423   92.3160   14.5650 C.ar    1  UNL1        0.1314
     33 C          66.2351   93.2355   13.6035 C.ar    1  UNL1        0.1783
     34 F          67.3099   94.1605   14.0926 F       1  UNL1       -0.2009
     35 C          65.8532   93.2300   12.1529 C.ar    1  UNL1        0.1314
     36 N          64.7784   92.3050   11.6639 N.ar    1  UNL1       -0.2268
@<TRIPOS>BOND
     1    29    28    1
     2    29    27    1
     3    21    27    1
     4    21    20    1
     5    20     1    1
     6     1     2    2
     7     1     3    2
     8     1     4    1
     9     4     5    1
    10     5     6    1
    11     6     7    1
    12     7    10    1
    13    10    11    1
    14    11    12    1
    15    12    13   ar
    16    13    14   ar
    17    14    15   ar
    18    15    16    1
    19    15    17   ar
    20    17    18   ar
    21    18    19    1
    22     7     8    1
    23     8     9    1
    24    21    22    1
    25    22    23    1
    26    22    24   am
    27    24    25    2
    28    29    30    1
    29    30    31   ar
    30    31    32   ar
    31    32    33   ar
    32    33    34    1
    33    33    35   ar
    34    35    36   ar
    35     9     4    1
    36    36    30   ar
    37    18    12   ar
    38    23    26    1
@<TRIPOS>MOLECULE
*****
 36 38 0 0 0
SMALL
GASTEIGER

@<TRIPOS>ATOM
      1 S          63.0530   90.7063   12.6457 S.O2    1  UNL1        0.0456
      2 O          63.9129   91.2864   11.5623 O.2     1  UNL1       -0.1572
      3 O          62.1931   90.1262   13.7291 O.2     1  UNL1       -0.1572
      4 N          62.1925   90.0463   11.6093 N.3     1  UNL1       -0.1592
      5 C          60.7793   89.6669   11.9387 C.3     1  UNL1        0.0979
      6 C          59.9189   89.0069   10.9023 C.3     1  UNL1        0.0487
      7 C          60.4718   88.7264    9.5365 C.3     1  UNL1        0.1186
      8 C          61.8851   89.1058    9.2070 C.3     1  UNL1        0.0487
      9 C          62.7455   89.7658   10.2434 C.3     1  UNL1        0.0979
     10 O          59.6114   88.0664    8.5000 O.3     1  UNL1       -0.3514
     11 C          59.8180   86.6191    8.1647 C.3     1  UNL1        0.1693
     12 C          60.9761   85.8703    8.7549 C.ar    1  UNL1        0.0179
     13 C          61.1823   85.8580   10.2406 C.ar    1  UNL1       -0.0001
     14 C          62.3403   85.1093   10.8308 C.ar    1  UNL1        0.0112
     15 C          63.2921   84.3728    9.9353 C.ar    1  UNL1        0.0585
     16 CL         64.4501   83.6240   10.5256 Cl      1  UNL1       -0.0822
     17 C          63.0858   84.3851    8.4496 C.ar    1  UNL1        0.0225
     18 C          61.9278   85.1339    7.8595 C.ar    1  UNL1        0.0569
     19 CL         61.7214   85.1462    6.3737 Cl      1  UNL1       -0.0825
     20 C          63.9134   91.3663   13.6820 C.3     1  UNL1        0.1913
     21 C          64.7875   90.5335   14.5722 C.3     1  UNL1        0.1293
     22 N          64.2078   89.3638   15.3109 N.am    1  UNL1       -0.1645
     23 O          63.3793   89.5892   16.5409 O.3     1  UNL1       -0.2914
     24 C          64.4565   87.9685   14.8195 C.2     1  UNL1        0.3268
     25 O          63.8768   86.7987   15.5582 O.2     1  UNL1       -0.2627
     26 H          63.3173   90.5407   16.7190 H       1  UNL1        0.2417
     27 C          66.2413   90.8705   14.7238 C.3     1  UNL1        0.0318
     28 C          67.1528   93.0933   15.7130 C.3     1  UNL1        0.0080
     29 C          66.7077   92.2831   14.5316 C.3     1  UNL1        0.0604
     30 C          66.7290   92.8856   13.1581 C.ar    1  UNL1        0.1390
     31 N          67.3050   92.1125   12.0089 N.ar    1  UNL1       -0.2268
     32 C          67.3264   92.7150   10.6354 C.ar    1  UNL1        0.1314
     33 C          66.7717   94.0905   10.4110 C.ar    1  UNL1        0.1783
     34 F          66.7930   94.6929    9.0375 F       1  UNL1       -0.2009
     35 C          66.1957   94.8636   11.5602 C.ar    1  UNL1        0.1314
     36 N          66.1744   94.2611   12.9337 N.ar    1  UNL1       -0.2268
@<TRIPOS>BOND
     1    29    28    1
     2    29    27    1
     3    21    27    1
     4    21    20    1
     5    20     1    1
     6     1     2    2
     7     1     3    2
     8     1     4    1
     9     4     5    1
    10     5     6    1
    11     6     7    1
    12     7    10    1
    13    10    11    1
    14    11    12    1
    15    12    13   ar
    16    13    14   ar
    17    14    15   ar
    18    15    16    1
    19    15    17   ar
    20    17    18   ar
    21    18    19    1
    22     7     8    1
    23     8     9    1
    24    21    22    1
    25    22    23    1
    26    22    24   am
    27    24    25    2
    28    29    30    1
    29    30    31   ar
    30    31    32   ar
    31    32    33   ar
    32    33    34    1
    33    33    35   ar
    34    35    36   ar
    35     9     4    1
    36    36    30   ar
    37    18    12   ar
    38    23    26    1
