@<TRIPOS>MOLECULE
*****
 33 37 0 0 0
SMALL
GASTEIGER

@<TRIPOS>ATOM
      1 N          65.3488   91.9689   13.1206 N.am    1  UNL1       -0.2589
      2 C          65.4402   92.7276   11.8298 C.3     1  UNL1        0.0985
      3 C          64.4485   92.1354   10.8728 C.3     1  UNL1        0.0306
      4 C          63.7441   91.0107   11.5721 C.3     1  UNL1        0.0737
      5 C          63.1287   89.9191   12.3965 C.3     1  UNL1        0.0260
      6 C          62.0563   89.0500   11.8096 C.3     1  UNL1        0.0727
      7 N          61.5992   89.2724   10.3983 N.3     1  UNL1       -0.2703
      8 C          62.2147   90.3640    9.5739 C.3     1  UNL1        0.0727
      9 C          63.2871   91.2331   10.1608 C.3     1  UNL1        0.0260
     10 C          64.3005   90.9078   12.9613 C.2     1  UNL1        0.2284
     11 O          63.8821   89.9177   14.0075 O.2     1  UNL1       -0.2746
     12 C          68.6012   91.8163   13.3389 C.3     1  UNL1        0.0389
     13 C          67.6576   92.1560   14.4544 C.2     1  UNL1        0.0668
     14 C          66.1626   92.2261   14.3540 C.2     1  UNL1        0.0771
     15 C          65.6244   92.5987   15.7036 C.3     1  UNL1        0.2499
     16 O          66.7867   92.7588   16.6381 O.3     1  UNL1       -0.4392
     17 C          68.0433   92.4852   15.8661 C.2     1  UNL1        0.3386
     18 O          69.4404   92.5325   16.4101 O.2     1  UNL1       -0.2452
     19 C          60.5268   88.4032    9.8115 C.3     1  UNL1        0.1063
     20 C          60.8772   87.0598    9.2437 C.3     1  UNL1        0.1483
     21 O          60.4557   86.7017    7.8494 O.3     1  UNL1       -0.3786
     22 H          60.7599   85.8048    7.6399 H       1  UNL1        0.2108
     23 C          61.6493   86.0744   10.0702 C.ar    1  UNL1        0.0015
     24 C          61.4442   86.0175   11.5550 C.ar    1  UNL1       -0.0020
     25 C          62.2162   85.0322   12.3815 C.ar    1  UNL1        0.0060
     26 C          63.1932   84.1038   11.7232 C.ar    1  UNL1        0.0748
     27 C          63.3983   84.1608   10.2384 C.ar    1  UNL1        0.0233
     28 C          62.6263   85.1461    9.4119 C.ar    1  UNL1       -0.0238
     29 C          62.8314   85.2031    7.9270 C.3     1  UNL1        0.0306
     30 C          64.4221   83.1276    9.8719 C.3     1  UNL1        0.2352
     31 O          64.8498   82.4320   11.1302 O.3     1  UNL1       -0.4404
     32 C          64.0903   83.0354   12.2743 C.2     1  UNL1        0.3413
     33 O          64.2073   82.6398   13.7165 O.2     1  UNL1       -0.2449
@<TRIPOS>BOND
     1    12    13    1
     2    13    14    2
     3    14     1    1
     4     1     2    1
     5     2     3    1
     6     3     4    1
     7     4     5    1
     8     5     6    1
     9     6     7    1
    10     7    19    1
    11    19    20    1
    12    20    21    1
    13    20    23    1
    14    23    24   ar
    15    24    25   ar
    16    25    26   ar
    17    26    27   ar
    18    27    28   ar
    19    28    29    1
    20    27    30    1
    21    30    31    1
    22    31    32    1
    23    32    33    2
    24     7     8    1
    25     8     9    1
    26     4    10    1
    27    10    11    2
    28    14    15    1
    29    15    16    1
    30    16    17    1
    31    17    18    2
    32    17    13    1
    33    10     1   am
    34     9     4    1
    35    28    23   ar
    36    32    26    1
    37    21    22    1
@<TRIPOS>MOLECULE
*****
 33 37 0 0 0
SMALL
GASTEIGER

@<TRIPOS>ATOM
      1 N          62.1897   87.5079   11.0821 N.am    1  UNL1       -0.2589
      2 C          62.7539   86.5878   12.1239 C.3     1  UNL1        0.0985
      3 C          63.5270   87.4177   13.1055 C.3     1  UNL1        0.0306
      4 C          63.4406   88.8507   12.6705 C.3     1  UNL1        0.0737
      5 C          63.2668   90.2332   12.1152 C.3     1  UNL1        0.0260
      6 C          63.8964   91.4046   12.8090 C.3     1  UNL1        0.0727
      7 N          64.6998   91.1936   14.0580 N.3     1  UNL1       -0.2703
      8 C          64.8736   89.8111   14.6133 C.3     1  UNL1        0.0727
      9 C          64.2440   88.6396   13.9196 C.3     1  UNL1        0.0260
     10 C          62.6141   88.9065   11.4200 C.2     1  UNL1        0.2284
     11 O          62.2722   90.1435   10.6436 O.2     1  UNL1       -0.2746
     12 C          63.0319   85.3643    8.7702 C.3     1  UNL1        0.0389
     13 C          61.7359   86.1157    8.8459 C.2     1  UNL1        0.0668
     14 C          61.3487   87.1010    9.9086 C.2     1  UNL1        0.0771
     15 C          59.9731   87.6080    9.5917 C.3     1  UNL1        0.2499
     16 O          59.5099   86.9359    8.3332 O.3     1  UNL1       -0.4392
     17 C          60.5994   86.0137    7.8723 C.2     1  UNL1        0.3386
     18 O          60.5595   85.1423    6.6520 O.2     1  UNL1       -0.2452
     19 C          65.3294   92.3651   14.7517 C.3     1  UNL1        0.1063
     20 C          66.6238   92.9294   14.2457 C.3     1  UNL1        0.1483
     21 O          67.7839   93.1006   15.1811 O.3     1  UNL1       -0.3786
     22 H          68.5369   93.4745   14.6972 H       1  UNL1        0.2108
     23 C          66.7581   93.3225   12.8044 C.ar    1  UNL1        0.0015
     24 C          66.0128   94.5136   12.2793 C.ar    1  UNL1       -0.0020
     25 C          66.1471   94.9068   10.8380 C.ar    1  UNL1        0.0060
     26 C          67.0267   94.1089    9.9218 C.ar    1  UNL1        0.0748
     27 C          67.7721   92.9178   10.4469 C.ar    1  UNL1        0.0233
     28 C          67.6378   92.5246   11.8882 C.ar    1  UNL1       -0.0238
     29 C          68.3832   91.3335   12.4133 C.3     1  UNL1        0.0306
     30 C          68.5592   92.3275    9.3147 C.3     1  UNL1        0.2352
     31 O          68.3003   93.1537    8.0898 O.3     1  UNL1       -0.4404
     32 C          67.3532   94.2546    8.4650 C.2     1  UNL1        0.3413
     33 O          66.8252   95.3152    7.5450 O.2     1  UNL1       -0.2449
@<TRIPOS>BOND
     1    12    13    1
     2    13    14    2
     3    14     1    1
     4     1     2    1
     5     2     3    1
     6     3     4    1
     7     4     5    1
     8     5     6    1
     9     6     7    1
    10     7    19    1
    11    19    20    1
    12    20    21    1
    13    20    23    1
    14    23    24   ar
    15    24    25   ar
    16    25    26   ar
    17    26    27   ar
    18    27    28   ar
    19    28    29    1
    20    27    30    1
    21    30    31    1
    22    31    32    1
    23    32    33    2
    24     7     8    1
    25     8     9    1
    26     4    10    1
    27    10    11    2
    28    14    15    1
    29    15    16    1
    30    16    17    1
    31    17    18    2
    32    17    13    1
    33    10     1   am
    34     9     4    1
    35    28    23   ar
    36    32    26    1
    37    21    22    1
@<TRIPOS>MOLECULE
*****
 33 37 0 0 0
SMALL
GASTEIGER

@<TRIPOS>ATOM
      1 N          62.9293   86.3822   12.3445 N.am    1  UNL1       -0.2589
      2 C          62.3561   87.2245   11.2435 C.3     1  UNL1        0.0985
      3 C          62.7109   88.6551   11.5216 C.3     1  UNL1        0.0306
      4 C          63.5034   88.6972   12.7945 C.3     1  UNL1        0.0737
      5 C          64.2795   88.5832   14.0731 C.3     1  UNL1        0.0260
      6 C          64.8387   89.8138   14.7232 C.3     1  UNL1        0.0727
      7 N          64.6220   91.1585   14.0947 N.3     1  UNL1       -0.2703
      8 C          63.8459   91.2725   12.8162 C.3     1  UNL1        0.0727
      9 C          63.2866   90.0418   12.1661 C.3     1  UNL1        0.0260
     10 C          63.6384   87.2925   13.3031 C.2     1  UNL1        0.2284
     11 O          64.3564   86.8718   14.5511 O.2     1  UNL1       -0.2746
     12 C          63.4619   84.2171    9.9617 C.3     1  UNL1        0.0389
     13 C          63.0586   83.8964   11.3705 C.2     1  UNL1        0.0668
     14 C          62.8137   84.8916   12.4657 C.2     1  UNL1        0.0771
     15 C          62.4331   84.1346   13.7034 C.3     1  UNL1        0.2499
     16 O          62.4426   82.6714   13.3731 O.3     1  UNL1       -0.4392
     17 C          62.8292   82.5243   11.9313 C.2     1  UNL1        0.3386
     18 O          62.9629   81.2318   11.1818 O.2     1  UNL1       -0.2452
     19 C          65.1813   92.3891   14.7449 C.3     1  UNL1        0.1063
     20 C          66.4858   92.9597   14.2731 C.3     1  UNL1        0.1483
     21 O          67.6137   93.1543   15.2426 O.3     1  UNL1       -0.3786
     22 H          68.3782   93.5294   14.7781 H       1  UNL1        0.2108
     23 C          66.6625   93.3356   12.8317 C.ar    1  UNL1        0.0015
     24 C          65.9307   94.5183   12.2699 C.ar    1  UNL1       -0.0020
     25 C          66.1073   94.8942   10.8286 C.ar    1  UNL1        0.0060
     26 C          67.0158   94.0874    9.9491 C.ar    1  UNL1        0.0748
     27 C          67.7476   92.9047   10.5108 C.ar    1  UNL1        0.0233
     28 C          67.5710   92.5287   11.9521 C.ar    1  UNL1       -0.0238
     29 C          68.3028   91.3460   12.5139 C.3     1  UNL1        0.0306
     30 C          68.5696   92.3026    9.4100 C.3     1  UNL1        0.2352
     31 O          68.3458   93.1132    8.1679 O.3     1  UNL1       -0.4404
     32 C          67.3855   94.2162    8.5010 C.2     1  UNL1        0.3413
     33 O          66.8831   95.2642    7.5527 O.2     1  UNL1       -0.2449
@<TRIPOS>BOND
     1    12    13    1
     2    13    14    2
     3    14     1    1
     4     1     2    1
     5     2     3    1
     6     3     4    1
     7     4     5    1
     8     5     6    1
     9     6     7    1
    10     7    19    1
    11    19    20    1
    12    20    21    1
    13    20    23    1
    14    23    24   ar
    15    24    25   ar
    16    25    26   ar
    17    26    27   ar
    18    27    28   ar
    19    28    29    1
    20    27    30    1
    21    30    31    1
    22    31    32    1
    23    32    33    2
    24     7     8    1
    25     8     9    1
    26     4    10    1
    27    10    11    2
    28    14    15    1
    29    15    16    1
    30    16    17    1
    31    17    18    2
    32    17    13    1
    33    10     1   am
    34     9     4    1
    35    28    23   ar
    36    32    26    1
    37    21    22    1
@<TRIPOS>MOLECULE
*****
 33 37 0 0 0
SMALL
GASTEIGER

@<TRIPOS>ATOM
      1 N          63.6210   83.6004   13.4110 N.am    1  UNL1       -0.2589
      2 C          64.3523   83.7429   14.7130 C.3     1  UNL1        0.0985
      3 C          64.5448   85.2066   14.9787 C.3     1  UNL1        0.0306
      4 C          63.9325   85.9687   13.8409 C.3     1  UNL1        0.0737
      5 C          63.2817   86.5917   12.6417 C.3     1  UNL1        0.0260
      6 C          63.2465   88.0843   12.4981 C.3     1  UNL1        0.0727
      7 N          63.8622   88.9541   13.5537 N.3     1  UNL1       -0.2703
      8 C          64.5131   88.3311   14.7530 C.3     1  UNL1        0.0727
      9 C          64.5482   86.8385   14.8966 C.3     1  UNL1        0.0260
     10 C          63.3616   84.9761   12.8721 C.2     1  UNL1        0.2284
     11 O          62.6552   85.3018   11.5895 O.2     1  UNL1       -0.2746
     12 C          64.1623   82.7663   10.3029 C.3     1  UNL1        0.0389
     13 C          63.4684   81.9256   11.3333 C.2     1  UNL1        0.0668
     14 C          63.2196   82.3090   12.7620 C.2     1  UNL1        0.0771
     15 C          62.4989   81.1744   13.4277 C.3     1  UNL1        0.2499
     16 O          62.3023   80.0897   12.4104 O.3     1  UNL1       -0.4392
     17 C          62.9015   80.5540   11.1161 C.2     1  UNL1        0.3386
     18 O          62.9290   79.7822    9.8302 O.2     1  UNL1       -0.2452
     19 C          63.8271   90.4468   13.4101 C.3     1  UNL1        0.1063
     20 C          65.1030   91.2344   13.4508 C.3     1  UNL1        0.1483
     21 O          66.1487   90.9157   14.4779 O.3     1  UNL1       -0.3786
     22 H          66.9042   91.5137   14.3664 H       1  UNL1        0.2108
     23 C          65.3332   92.3409   12.4645 C.ar    1  UNL1        0.0015
     24 C          64.9265   92.1648   11.0314 C.ar    1  UNL1       -0.0020
     25 C          65.1567   93.2712   10.0451 C.ar    1  UNL1        0.0060
     26 C          65.7936   94.5536   10.4918 C.ar    1  UNL1        0.0748
     27 C          66.2003   94.7297   11.9248 C.ar    1  UNL1        0.0233
     28 C          65.9701   93.6234   12.9111 C.ar    1  UNL1       -0.0238
     29 C          66.3768   93.7995   14.3442 C.3     1  UNL1        0.0306
     30 C          66.8021   96.0959   12.0713 C.3     1  UNL1        0.2352
     31 O          66.7673   96.7641   10.7288 O.3     1  UNL1       -0.4404
     32 C          66.1440   95.8110    9.7526 C.2     1  UNL1        0.3413
     33 O          65.9119   96.0697    8.2934 O.2     1  UNL1       -0.2449
@<TRIPOS>BOND
     1    12    13    1
     2    13    14    2
     3    14     1    1
     4     1     2    1
     5     2     3    1
     6     3     4    1
     7     4     5    1
     8     5     6    1
     9     6     7    1
    10     7    19    1
    11    19    20    1
    12    20    21    1
    13    20    23    1
    14    23    24   ar
    15    24    25   ar
    16    25    26   ar
    17    26    27   ar
    18    27    28   ar
    19    28    29    1
    20    27    30    1
    21    30    31    1
    22    31    32    1
    23    32    33    2
    24     7     8    1
    25     8     9    1
    26     4    10    1
    27    10    11    2
    28    14    15    1
    29    15    16    1
    30    16    17    1
    31    17    18    2
    32    17    13    1
    33    10     1   am
    34     9     4    1
    35    28    23   ar
    36    32    26    1
    37    21    22    1
@<TRIPOS>MOLECULE
*****
 33 37 0 0 0
SMALL
GASTEIGER

@<TRIPOS>ATOM
      1 N          65.8400   93.5742   11.9626 N.am    1  UNL1       -0.2589
      2 C          66.4037   93.4783   13.3494 C.3     1  UNL1        0.0985
      3 C          65.9329   92.1884   13.9530 C.3     1  UNL1        0.0306
      4 C          65.0781   91.4870   12.9393 C.3     1  UNL1        0.0737
      5 C          64.2507   90.9074   11.8305 C.3     1  UNL1        0.0260
      6 C          63.5725   89.5823   12.0147 C.3     1  UNL1        0.0727
      7 N          63.7216   88.8367   13.3077 N.3     1  UNL1       -0.2703
      8 C          64.5489   89.4163   14.4165 C.3     1  UNL1        0.0727
      9 C          65.2272   90.7414   14.2324 C.3     1  UNL1        0.0260
     10 C          65.0207   92.3434   11.7092 C.2     1  UNL1        0.2284
     11 O          64.2749   92.0251   10.4473 O.2     1  UNL1       -0.2746
     12 C          67.8757   93.5528    9.4122 C.3     1  UNL1        0.0389
     13 C          66.9930   94.6927    9.8262 C.2     1  UNL1        0.0668
     14 C          66.0573   94.7026   10.9985 C.2     1  UNL1        0.0771
     15 C          65.3771   96.0389   11.0375 C.3     1  UNL1        0.2499
     16 O          65.8924   96.8550    9.8893 O.3     1  UNL1       -0.4392
     17 C          66.8911   96.0230    9.1407 C.2     1  UNL1        0.3386
     18 O          67.6540   96.4468    7.9207 O.2     1  UNL1       -0.2452
     19 C          63.0433   87.5115   13.4918 C.3     1  UNL1        0.1063
     20 C          63.8282   86.3279   13.9746 C.3     1  UNL1        0.1483
     21 O          64.8969   86.5090   15.0114 O.3     1  UNL1       -0.3786
     22 H          65.3036   85.6511   15.2098 H       1  UNL1        0.2108
     23 C          63.5442   84.9631   13.4206 C.ar    1  UNL1        0.0015
     24 C          63.9515   84.6237   12.0174 C.ar    1  UNL1       -0.0020
     25 C          63.6676   83.2590   11.4634 C.ar    1  UNL1        0.0060
     26 C          62.9765   82.2337   12.3126 C.ar    1  UNL1        0.0748
     27 C          62.5693   82.5732   13.7158 C.ar    1  UNL1        0.0233
     28 C          62.8532   83.9379   14.2698 C.ar    1  UNL1       -0.0238
     29 C          62.4460   84.2773   15.6730 C.3     1  UNL1        0.0306
     30 C          61.9081   81.3657   14.3115 C.3     1  UNL1        0.2352
     31 O          61.9067   80.2800   13.2765 O.3     1  UNL1       -0.4404
     32 C          62.5670   80.8165   12.0411 C.2     1  UNL1        0.3413
     33 O          62.7803   80.0673   10.7592 O.2     1  UNL1       -0.2449
@<TRIPOS>BOND
     1    12    13    1
     2    13    14    2
     3    14     1    1
     4     1     2    1
     5     2     3    1
     6     3     4    1
     7     4     5    1
     8     5     6    1
     9     6     7    1
    10     7    19    1
    11    19    20    1
    12    20    21    1
    13    20    23    1
    14    23    24   ar
    15    24    25   ar
    16    25    26   ar
    17    26    27   ar
    18    27    28   ar
    19    28    29    1
    20    27    30    1
    21    30    31    1
    22    31    32    1
    23    32    33    2
    24     7     8    1
    25     8     9    1
    26     4    10    1
    27    10    11    2
    28    14    15    1
    29    15    16    1
    30    16    17    1
    31    17    18    2
    32    17    13    1
    33    10     1   am
    34     9     4    1
    35    28    23   ar
    36    32    26    1
    37    21    22    1
@<TRIPOS>MOLECULE
*****
 33 37 0 0 0
SMALL
GASTEIGER

@<TRIPOS>ATOM
      1 N          62.4259   87.5365   11.2061 N.am    1  UNL1       -0.2589
      2 C          62.9406   86.6681   12.3157 C.3     1  UNL1        0.0985
      3 C          63.6524   87.5476   13.3005 C.3     1  UNL1        0.0306
      4 C          63.5777   88.9596   12.7996 C.3     1  UNL1        0.0737
      5 C          63.4225   90.3150   12.1763 C.3     1  UNL1        0.0260
      6 C          64.0037   91.5219   12.8513 C.3     1  UNL1        0.0727
      7 N          64.7400   91.3733   14.1497 N.3     1  UNL1       -0.2703
      8 C          64.8952   90.0178   14.7730 C.3     1  UNL1        0.0727
      9 C          64.3140   88.8110   14.0980 C.3     1  UNL1        0.0260
     10 C          62.8197   88.9527   11.5053 C.2     1  UNL1        0.2284
     11 O          62.5098   90.1516   10.6586 O.2     1  UNL1       -0.2746
     12 C          59.3501   88.3446   10.4743 C.3     1  UNL1        0.0389
     13 C          60.2394   87.4420    9.6715 C.2     1  UNL1        0.0668
     14 C          61.6532   87.0705   10.0079 C.2     1  UNL1        0.0771
     15 C          62.1587   86.1514    8.9357 C.3     1  UNL1        0.2499
     16 O          61.0572   85.9547    7.9366 O.3     1  UNL1       -0.4392
     17 C          59.8711   86.7523    8.3914 C.2     1  UNL1        0.3386
     18 O          58.5487   86.8442    7.6893 O.2     1  UNL1       -0.2452
     19 C          65.3213   92.5802   14.8247 C.3     1  UNL1        0.1063
     20 C          66.6704   93.0919   14.4148 C.3     1  UNL1        0.1483
     21 O          67.5520   93.7713   15.4204 O.3     1  UNL1       -0.3786
     22 H          68.3815   94.0388   14.9946 H       1  UNL1        0.2108
     23 C          67.1379   92.9241   12.9994 C.ar    1  UNL1        0.0015
     24 C          67.9582   91.7277   12.6174 C.ar    1  UNL1       -0.0020
     25 C          68.4257   91.5599   11.2021 C.ar    1  UNL1        0.0060
     26 C          68.0730   92.5884   10.1688 C.ar    1  UNL1        0.0748
     27 C          67.2528   93.7848   10.5508 C.ar    1  UNL1        0.0233
     28 C          66.7853   93.9526   11.9662 C.ar    1  UNL1       -0.0238
     29 C          65.9650   95.1490   12.3482 C.3     1  UNL1        0.0306
     30 C          67.0624   94.6271    9.3243 C.3     1  UNL1        0.2352
     31 O          67.7650   93.9513    8.1843 O.3     1  UNL1       -0.4404
     32 C          68.3896   92.6914    8.7062 C.2     1  UNL1        0.3413
     33 O          69.1902   91.7071    7.9060 O.2     1  UNL1       -0.2449
@<TRIPOS>BOND
     1    12    13    1
     2    13    14    2
     3    14     1    1
     4     1     2    1
     5     2     3    1
     6     3     4    1
     7     4     5    1
     8     5     6    1
     9     6     7    1
    10     7    19    1
    11    19    20    1
    12    20    21    1
    13    20    23    1
    14    23    24   ar
    15    24    25   ar
    16    25    26   ar
    17    26    27   ar
    18    27    28   ar
    19    28    29    1
    20    27    30    1
    21    30    31    1
    22    31    32    1
    23    32    33    2
    24     7     8    1
    25     8     9    1
    26     4    10    1
    27    10    11    2
    28    14    15    1
    29    15    16    1
    30    16    17    1
    31    17    18    2
    32    17    13    1
    33    10     1   am
    34     9     4    1
    35    28    23   ar
    36    32    26    1
    37    21    22    1
@<TRIPOS>MOLECULE
*****
 33 37 0 0 0
SMALL
GASTEIGER

@<TRIPOS>ATOM
      1 N          62.6695   84.5326   11.7938 N.am    1  UNL1       -0.2589
      2 C          61.9242   85.2802   10.7282 C.3     1  UNL1        0.0985
      3 C          62.0943   86.7480   10.9865 C.3     1  UNL1        0.0306
      4 C          62.9448   86.9076   12.2119 C.3     1  UNL1        0.0737
      5 C          63.8007   86.9103   13.4436 C.3     1  UNL1        0.0260
      6 C          64.2217   88.2106   14.0614 C.3     1  UNL1        0.0727
      7 N          63.7867   89.5083   13.4475 N.3     1  UNL1       -0.2703
      8 C          62.9308   89.5056   12.2158 C.3     1  UNL1        0.0727
      9 C          62.5098   88.2052   11.5979 C.3     1  UNL1        0.0260
     10 C          63.3003   85.5384   12.7108 C.2     1  UNL1        0.2284
     11 O          64.1392   85.2292   13.9152 O.2     1  UNL1       -0.2746
     12 C          62.0003   82.7866   14.4683 C.3     1  UNL1        0.0389
     13 C          62.4594   82.2386   13.1497 C.2     1  UNL1        0.0668
     14 C          62.7670   83.0411   11.9203 C.2     1  UNL1        0.0771
     15 C          63.1893   82.0904   10.8397 C.3     1  UNL1        0.2499
     16 O          63.1426   80.7002   11.4012 O.3     1  UNL1       -0.4392
     17 C          62.6915   80.7918   12.8288 C.2     1  UNL1        0.3386
     18 O          62.5052   79.6391   13.7703 O.2     1  UNL1       -0.2452
     19 C          64.2078   90.8087   14.0654 C.3     1  UNL1        0.1063
     20 C          65.5465   91.3982   13.7333 C.3     1  UNL1        0.1483
     21 O          66.7720   90.9349   14.4637 O.3     1  UNL1       -0.3786
     22 H          67.5473   91.4131   14.1303 H       1  UNL1        0.2108
     23 C          65.6598   92.4510   12.6708 C.ar    1  UNL1        0.0015
     24 C          65.2470   92.1423   11.2622 C.ar    1  UNL1       -0.0020
     25 C          65.3602   93.1951   10.1997 C.ar    1  UNL1        0.0060
     26 C          65.8862   94.5564   10.5459 C.ar    1  UNL1        0.0748
     27 C          66.2990   94.8651   11.9546 C.ar    1  UNL1        0.0233
     28 C          66.1858   93.8124   13.0170 C.ar    1  UNL1       -0.0238
     29 C          66.5986   94.1210   14.4257 C.3     1  UNL1        0.0306
     30 C          66.7776   96.2861   11.9965 C.3     1  UNL1        0.2352
     31 O          66.6606   96.8557   10.6138 O.3     1  UNL1       -0.4404
     32 C          66.1097   95.7867    9.7173 C.2     1  UNL1        0.3413
     33 O          65.8312   95.9238    8.2498 O.2     1  UNL1       -0.2449
@<TRIPOS>BOND
     1    12    13    1
     2    13    14    2
     3    14     1    1
     4     1     2    1
     5     2     3    1
     6     3     4    1
     7     4     5    1
     8     5     6    1
     9     6     7    1
    10     7    19    1
    11    19    20    1
    12    20    21    1
    13    20    23    1
    14    23    24   ar
    15    24    25   ar
    16    25    26   ar
    17    26    27   ar
    18    27    28   ar
    19    28    29    1
    20    27    30    1
    21    30    31    1
    22    31    32    1
    23    32    33    2
    24     7     8    1
    25     8     9    1
    26     4    10    1
    27    10    11    2
    28    14    15    1
    29    15    16    1
    30    16    17    1
    31    17    18    2
    32    17    13    1
    33    10     1   am
    34     9     4    1
    35    28    23   ar
    36    32    26    1
    37    21    22    1
@<TRIPOS>MOLECULE
*****
 33 37 0 0 0
SMALL
GASTEIGER

@<TRIPOS>ATOM
      1 N          65.7917   93.3458   11.9043 N.am    1  UNL1       -0.2589
      2 C          66.2101   92.9620   13.2928 C.3     1  UNL1        0.0985
      3 C          65.5040   91.6891   13.6545 C.3     1  UNL1        0.0306
      4 C          64.6491   91.2859   12.4896 C.3     1  UNL1        0.0737
      5 C          63.8476   91.0113   11.2519 C.3     1  UNL1        0.0260
      6 C          62.9692   89.7975   11.1812 C.3     1  UNL1        0.0727
      7 N          62.8923   88.8583   12.3482 N.3     1  UNL1       -0.2703
      8 C          63.6939   89.1329   13.5860 C.3     1  UNL1        0.0727
      9 C          64.5722   90.3467   13.6567 C.3     1  UNL1        0.0260
     10 C          64.8269   92.3098   11.4080 C.2     1  UNL1        0.2284
     11 O          64.1576   92.2997   10.0656 O.2     1  UNL1       -0.2746
     12 C          67.6223   93.3262    9.2028 C.3     1  UNL1        0.0389
     13 C          67.0978   94.5443    9.9037 C.2     1  UNL1        0.0668
     14 C          66.2564   94.5533   11.1454 C.2     1  UNL1        0.0771
     15 C          65.9613   95.9818   11.4951 C.3     1  UNL1        0.2499
     16 O          66.6203   96.8557   10.4695 O.3     1  UNL1       -0.4392
     17 C          67.3227   95.9673    9.4860 C.2     1  UNL1        0.3386
     18 O          68.1116   96.4220    8.2939 O.2     1  UNL1       -0.2452
     19 C          62.0139   87.6445   12.2774 C.3     1  UNL1        0.1063
     20 C          62.3505   86.5291   11.3327 C.3     1  UNL1        0.1483
     21 O          62.4962   86.8069    9.8658 O.3     1  UNL1       -0.3786
     22 H          62.7133   85.9837    9.4009 H       1  UNL1        0.2108
     23 C          62.5415   85.1359   11.8548 C.ar    1  UNL1        0.0015
     24 C          62.4482   84.8675   13.3276 C.ar    1  UNL1       -0.0020
     25 C          62.6392   83.4744   13.8497 C.ar    1  UNL1        0.0060
     26 C          62.9236   82.3496   12.8989 C.ar    1  UNL1        0.0748
     27 C          63.0169   82.6179   11.4261 C.ar    1  UNL1        0.0233
     28 C          62.8259   84.0111   10.9040 C.ar    1  UNL1       -0.0238
     29 C          62.9192   84.2795    9.4312 C.3     1  UNL1        0.0306
     30 C          63.3067   81.3182   10.7356 C.3     1  UNL1        0.2352
     31 O          63.3925   80.2466   11.7817 O.3     1  UNL1       -0.4404
     32 C          63.1557   80.8840   13.1187 C.2     1  UNL1        0.3413
     33 O          63.1518   80.1796   14.4430 O.2     1  UNL1       -0.2449
@<TRIPOS>BOND
     1    12    13    1
     2    13    14    2
     3    14     1    1
     4     1     2    1
     5     2     3    1
     6     3     4    1
     7     4     5    1
     8     5     6    1
     9     6     7    1
    10     7    19    1
    11    19    20    1
    12    20    21    1
    13    20    23    1
    14    23    24   ar
    15    24    25   ar
    16    25    26   ar
    17    26    27   ar
    18    27    28   ar
    19    28    29    1
    20    27    30    1
    21    30    31    1
    22    31    32    1
    23    32    33    2
    24     7     8    1
    25     8     9    1
    26     4    10    1
    27    10    11    2
    28    14    15    1
    29    15    16    1
    30    16    17    1
    31    17    18    2
    32    17    13    1
    33    10     1   am
    34     9     4    1
    35    28    23   ar
    36    32    26    1
    37    21    22    1
@<TRIPOS>MOLECULE
*****
 33 37 0 0 0
SMALL
GASTEIGER

@<TRIPOS>ATOM
      1 N          66.2848   93.2062   12.3525 N.am    1  UNL1       -0.2589
      2 C          66.8115   93.6289   13.6920 C.3     1  UNL1        0.0985
      3 C          66.0766   92.8533   14.7448 C.3     1  UNL1        0.0306
      4 C          65.0957   91.9513   14.0560 C.3     1  UNL1        0.0737
      5 C          64.1676   91.1089   13.2320 C.3     1  UNL1        0.0260
      6 C          63.2238   90.1561   13.9038 C.3     1  UNL1        0.0727
      7 N          63.2080   90.0458   15.3996 N.3     1  UNL1       -0.2703
      8 C          64.1360   90.8881   16.2237 C.3     1  UNL1        0.0727
      9 C          65.0798   91.8409   15.5519 C.3     1  UNL1        0.0260
     10 C          65.2244   92.1694   12.5776 C.2     1  UNL1        0.2284
     11 O          64.4318   91.4731   11.5113 O.2     1  UNL1       -0.2746
     12 C          66.0539   96.2947   11.3241 C.3     1  UNL1        0.0389
     13 C          66.6327   95.1482   10.5491 C.2     1  UNL1        0.0668
     14 C          66.7389   93.7287   11.0218 C.2     1  UNL1        0.0771
     15 C          67.3788   92.9232    9.9302 C.3     1  UNL1        0.2499
     16 O          67.6681   93.8450    8.7827 O.3     1  UNL1       -0.4392
     17 C          67.2070   95.2201    9.1652 C.2     1  UNL1        0.3386
     18 O          67.3033   96.4511    8.3135 O.2     1  UNL1       -0.2452
     19 C          62.2641   89.0929   16.0714 C.3     1  UNL1        0.1063
     20 C          62.8017   87.9514   16.8824 C.3     1  UNL1        0.1483
     21 O          63.2383   88.1783   18.2994 O.3     1  UNL1       -0.3786
     22 H          63.5572   87.3437   18.6771 H       1  UNL1        0.2108
     23 C          62.9028   86.5829   16.2765 C.ar    1  UNL1        0.0015
     24 C          61.9446   85.5062   16.6918 C.ar    1  UNL1       -0.0020
     25 C          62.0456   84.1377   16.0859 C.ar    1  UNL1        0.0060
     26 C          63.1048   83.8461   15.0647 C.ar    1  UNL1        0.0748
     27 C          64.0630   84.9228   14.6494 C.ar    1  UNL1        0.0233
     28 C          63.9620   86.2912   15.2553 C.ar    1  UNL1       -0.0238
     29 C          64.9202   87.3679   14.8399 C.3     1  UNL1        0.0306
     30 C          64.9962   84.3439   13.6276 C.3     1  UNL1        0.2352
     31 O          64.6147   82.9094   13.4114 O.3     1  UNL1       -0.4404
     32 C          63.4458   82.6017   14.2996 C.2     1  UNL1        0.3413
     33 O          62.7415   81.2815   14.4043 O.2     1  UNL1       -0.2449
@<TRIPOS>BOND
     1    12    13    1
     2    13    14    2
     3    14     1    1
     4     1     2    1
     5     2     3    1
     6     3     4    1
     7     4     5    1
     8     5     6    1
     9     6     7    1
    10     7    19    1
    11    19    20    1
    12    20    21    1
    13    20    23    1
    14    23    24   ar
    15    24    25   ar
    16    25    26   ar
    17    26    27   ar
    18    27    28   ar
    19    28    29    1
    20    27    30    1
    21    30    31    1
    22    31    32    1
    23    32    33    2
    24     7     8    1
    25     8     9    1
    26     4    10    1
    27    10    11    2
    28    14    15    1
    29    15    16    1
    30    16    17    1
    31    17    18    2
    32    17    13    1
    33    10     1   am
    34     9     4    1
    35    28    23   ar
    36    32    26    1
    37    21    22    1
