@<TRIPOS>MOLECULE
*****
 39 43 0 0 0
SMALL
GASTEIGER

@<TRIPOS>ATOM
      1 C          63.5146   86.7001   16.5609 C.3     1  UNL1        0.0666
      2 S          62.7874   87.9889   16.8059 S.3     1  UNL1       -0.0756
      3 C          64.1849   88.3349   13.8773 C.3     1  UNL1        0.1340
      4 N          63.9547   89.4274   14.8790 N.ar    1  UNL1       -0.2884
      5 C          63.3123   89.2684   16.2251 C.ar    1  UNL1        0.1932
      6 N          63.2870   90.6135   16.8885 N.ar    1  UNL1       -0.1221
      7 N          63.9138   91.6039   15.9524 N.ar    1  UNL1       -0.1282
      8 C          64.3265   90.8709   14.7104 C.ar    1  UNL1        0.1668
      9 C          64.9937   91.4752   13.5105 C.ar    1  UNL1        0.0359
     10 C          64.2321   91.6305   12.2276 C.ar    1  UNL1        0.0027
     11 C          64.8994   92.2348   11.0278 C.ar    1  UNL1       -0.0037
     12 C          66.3283   92.6837   11.1110 C.ar    1  UNL1       -0.0131
     13 C          67.0898   92.5284   12.3939 C.ar    1  UNL1       -0.0037
     14 C          66.4225   91.9241   13.5937 C.ar    1  UNL1        0.0027
     15 C          66.9955   93.2880    9.9111 C.3     1  UNL1        0.1111
     16 C          67.1721   94.7748    9.8205 C.2     1  UNL1        0.2238
     17 N          67.9024   95.3738    8.6552 N.am    1  UNL1       -0.3285
     18 O          66.6184   95.6628   10.8952 O.2     1  UNL1       -0.2750
     19 H          68.2658   94.7910    7.9498 H       1  UNL1        0.1450
     20 H          68.0182   96.3496    8.5957 H       1  UNL1        0.1450
     21 C          62.8436   85.3920   16.8585 C.3     1  UNL1        0.0294
     22 C          62.0974   84.6685   15.7769 C.3     1  UNL1        0.0730
     23 N          62.8385   84.1132   14.5969 N.3     1  UNL1       -0.2726
     24 C          63.9189   83.0737   14.6438 C.3     1  UNL1        0.0721
     25 C          64.3774   82.8180   13.2387 C.3     1  UNL1        0.0190
     26 C          63.5804   83.6995   12.3234 C.3     1  UNL1        0.0201
     27 C          64.2341   83.2394   11.0541 C.3     1  UNL1        0.0061
     28 C          63.1538   84.2789   11.0072 C.3     1  UNL1        0.0237
     29 C          62.6293   84.5000   13.1628 C.3     1  UNL1        0.0724
     30 C          62.2837   85.2136   10.2202 C.ar    1  UNL1       -0.0225
     31 C          62.2925   85.1632    8.7211 C.ar    1  UNL1       -0.0043
     32 C          61.4224   86.0979    7.9341 C.ar    1  UNL1        0.0035
     33 C          60.5435   87.0829    8.6463 C.ar    1  UNL1        0.0714
     34 C          60.5347   87.1332   10.1455 C.ar    1  UNL1        0.0035
     35 C          61.4047   86.1986   10.9324 C.ar    1  UNL1       -0.0043
     36 C          59.6734   88.0175    7.8594 C.3     1  UNL1        0.4186
     37 F          58.8032   88.9522    7.0723 F       1  UNL1       -0.1659
     38 F          60.3106   89.1890    8.5461 F       1  UNL1       -0.1659
     39 F          59.0362   86.8461    7.1726 F       1  UNL1       -0.1659
@<TRIPOS>BOND
     1     3     4    1
     2     4     5   ar
     3     5     2    1
     4     2     1    1
     5     1    21    1
     6    21    22    1
     7    22    23    1
     8    23    24    1
     9    24    25    1
    10    26    25    1
    11    26    27    1
    12    27    28    1
    13    28    30    1
    14    30    31   ar
    15    31    32   ar
    16    32    33   ar
    17    33    36    1
    18    36    37    1
    19    36    38    1
    20    36    39    1
    21    33    34   ar
    22    34    35   ar
    23    26    29    1
    24     5     6   ar
    25     6     7   ar
    26     7     8   ar
    27     8     9    1
    28     9    10   ar
    29    10    11   ar
    30    11    12   ar
    31    12    15    1
    32    15    16    1
    33    16    17   am
    34    16    18    2
    35    12    13   ar
    36    13    14   ar
    37     8     4   ar
    38    14     9   ar
    39    29    23    1
    40    28    26    1
    41    35    30   ar
    42    17    19    1
    43    17    20    1
@<TRIPOS>MOLECULE
*****
 39 43 0 0 0
SMALL
GASTEIGER

@<TRIPOS>ATOM
      1 C          63.8815   85.0283   15.9884 C.3     1  UNL1        0.0666
      2 S          63.1839   86.1031   16.7682 S.3     1  UNL1       -0.0756
      3 C          64.1834   87.1961   13.8603 C.3     1  UNL1        0.1340
      4 N          63.8089   88.0439   15.0397 N.ar    1  UNL1       -0.2884
      5 C          63.3495   87.5415   16.3763 C.ar    1  UNL1        0.1932
      6 N          63.0847   88.7300   17.2522 N.ar    1  UNL1       -0.1221
      7 N          63.3805   89.9670   16.4570 N.ar    1  UNL1       -0.1282
      8 C          63.8281   89.5430   15.0895 C.ar    1  UNL1        0.1668
      9 C          64.2251   90.4574   13.9687 C.ar    1  UNL1        0.0359
     10 C          65.3998   91.3760   14.1306 C.ar    1  UNL1        0.0027
     11 C          65.7968   92.2905   13.0098 C.ar    1  UNL1       -0.0037
     12 C          65.0190   92.2863   11.7272 C.ar    1  UNL1       -0.0131
     13 C          63.8443   91.3677   11.5653 C.ar    1  UNL1       -0.0037
     14 C          63.4473   90.4533   12.6862 C.ar    1  UNL1        0.0027
     15 C          65.4160   93.2008   10.6064 C.3     1  UNL1        0.1111
     16 C          66.3844   94.3184   10.8575 C.2     1  UNL1        0.2238
     17 N          65.9447   95.5355   11.6161 N.am    1  UNL1       -0.3285
     18 O          67.7925   94.2190   10.3502 O.2     1  UNL1       -0.2750
     19 H          65.0206   95.6008   11.9491 H       1  UNL1        0.1450
     20 H          66.5803   96.2691   11.7809 H       1  UNL1        0.1450
     21 C          63.0811   84.0303   15.2052 C.3     1  UNL1        0.0294
     22 C          63.7794   82.9780   14.3959 C.3     1  UNL1        0.0730
     23 N          63.8143   83.0825   12.9000 N.3     1  UNL1       -0.2726
     24 C          64.4312   82.0888   11.9609 C.3     1  UNL1        0.0721
     25 C          64.2366   82.5913   10.5610 C.3     1  UNL1        0.0190
     26 C          63.4994   83.8955   10.6349 C.3     1  UNL1        0.0201
     27 C          63.4570   84.1358    9.1549 C.3     1  UNL1        0.0061
     28 C          62.8401   85.1295   10.0940 C.3     1  UNL1        0.0237
     29 C          63.2384   84.1991   12.0805 C.3     1  UNL1        0.0724
     30 C          62.1032   86.4157   10.3239 C.ar    1  UNL1       -0.0225
     31 C          60.9248   86.4495   11.2514 C.ar    1  UNL1       -0.0043
     32 C          60.1880   87.7356   11.4813 C.ar    1  UNL1        0.0035
     33 C          60.6296   88.9880   10.7838 C.ar    1  UNL1        0.0714
     34 C          61.8081   88.9542    9.8564 C.ar    1  UNL1        0.0035
     35 C          62.5449   87.6680    9.6264 C.ar    1  UNL1       -0.0043
     36 C          59.8928   90.2741   11.0137 C.3     1  UNL1        0.4186
     37 F          59.1559   91.5603   11.2437 F       1  UNL1       -0.1659
     38 F          59.7902   90.4803    9.5315 F       1  UNL1       -0.1659
     39 F          59.9953   90.0679   12.4959 F       1  UNL1       -0.1659
@<TRIPOS>BOND
     1     3     4    1
     2     4     5   ar
     3     5     2    1
     4     2     1    1
     5     1    21    1
     6    21    22    1
     7    22    23    1
     8    23    24    1
     9    24    25    1
    10    26    25    1
    11    26    27    1
    12    27    28    1
    13    28    30    1
    14    30    31   ar
    15    31    32   ar
    16    32    33   ar
    17    33    36    1
    18    36    37    1
    19    36    38    1
    20    36    39    1
    21    33    34   ar
    22    34    35   ar
    23    26    29    1
    24     5     6   ar
    25     6     7   ar
    26     7     8   ar
    27     8     9    1
    28     9    10   ar
    29    10    11   ar
    30    11    12   ar
    31    12    15    1
    32    15    16    1
    33    16    17   am
    34    16    18    2
    35    12    13   ar
    36    13    14   ar
    37     8     4   ar
    38    14     9   ar
    39    29    23    1
    40    28    26    1
    41    35    30   ar
    42    17    19    1
    43    17    20    1
@<TRIPOS>MOLECULE
*****
 39 43 0 0 0
SMALL
GASTEIGER

@<TRIPOS>ATOM
      1 C          60.0908   87.5673    8.3949 C.3     1  UNL1        0.0666
      2 S          59.7091   88.8341    9.1017 S.3     1  UNL1       -0.0756
      3 C          62.7706   89.8583    9.5793 C.3     1  UNL1        0.1340
      4 N          61.7370   89.6415   10.6446 N.ar    1  UNL1       -0.2884
      5 C          60.3298   89.1708   10.4250 C.ar    1  UNL1        0.1932
      6 N          59.6523   89.0958   11.7612 N.ar    1  UNL1       -0.1221
      7 N          60.6407   89.5202   12.8066 N.ar    1  UNL1       -0.1282
      8 C          61.9292   89.8575   12.1165 C.ar    1  UNL1        0.1668
      9 C          63.1886   90.3282   12.7816 C.ar    1  UNL1        0.0359
     10 C          63.7204   89.6009   13.9809 C.ar    1  UNL1        0.0027
     11 C          64.9799   90.0715   14.6459 C.ar    1  UNL1       -0.0037
     12 C          65.7075   91.2695   14.1116 C.ar    1  UNL1       -0.0131
     13 C          65.1758   91.9968   12.9124 C.ar    1  UNL1       -0.0037
     14 C          63.9163   91.5261   12.2473 C.ar    1  UNL1        0.0027
     15 C          66.9670   91.7401   14.7767 C.3     1  UNL1        0.1111
     16 C          66.9011   92.7745   15.8610 C.2     1  UNL1        0.2238
     17 N          65.7007   92.8458   16.7576 N.am    1  UNL1       -0.3285
     18 O          68.0357   93.7375   16.0488 O.2     1  UNL1       -0.2750
     19 H          64.9560   92.2138   16.6344 H       1  UNL1        0.1450
     20 H          65.6575   93.5247   17.4693 H       1  UNL1        0.1450
     21 C          60.7692   86.4626    9.1496 C.3     1  UNL1        0.0294
     22 C          62.2322   86.2025    8.9446 C.3     1  UNL1        0.0730
     23 N          62.8917   85.0445    9.6331 N.3     1  UNL1       -0.2726
     24 C          63.4236   83.8098    8.9679 C.3     1  UNL1        0.0721
     25 C          63.9958   82.9202   10.0315 C.3     1  UNL1        0.0190
     26 C          63.8176   83.6051   11.3541 C.3     1  UNL1        0.0201
     27 C          64.4549   82.5252   12.1771 C.3     1  UNL1        0.0061
     28 C          63.9230   83.7599   12.8423 C.3     1  UNL1        0.0237
     29 C          63.1352   84.9180   11.1079 C.3     1  UNL1        0.0724
     30 C          63.6768   84.5621   14.0856 C.ar    1  UNL1       -0.0225
     31 C          64.4384   85.8327   14.3215 C.ar    1  UNL1       -0.0043
     32 C          64.1921   86.6349   15.5648 C.ar    1  UNL1        0.0035
     33 C          63.1843   86.1665   16.5722 C.ar    1  UNL1        0.0714
     34 C          62.4227   84.8960   16.3363 C.ar    1  UNL1        0.0035
     35 C          62.6689   84.0937   15.0930 C.ar    1  UNL1       -0.0043
     36 C          62.9381   86.9687   17.8155 C.3     1  UNL1        0.4186
     37 F          62.6918   87.7710   19.0589 F       1  UNL1       -0.1659
     38 F          63.4715   88.1925   17.1315 F       1  UNL1       -0.1659
     39 F          62.4046   85.7450   18.4995 F       1  UNL1       -0.1659
@<TRIPOS>BOND
     1     3     4    1
     2     4     5   ar
     3     5     2    1
     4     2     1    1
     5     1    21    1
     6    21    22    1
     7    22    23    1
     8    23    24    1
     9    24    25    1
    10    26    25    1
    11    26    27    1
    12    27    28    1
    13    28    30    1
    14    30    31   ar
    15    31    32   ar
    16    32    33   ar
    17    33    36    1
    18    36    37    1
    19    36    38    1
    20    36    39    1
    21    33    34   ar
    22    34    35   ar
    23    26    29    1
    24     5     6   ar
    25     6     7   ar
    26     7     8   ar
    27     8     9    1
    28     9    10   ar
    29    10    11   ar
    30    11    12   ar
    31    12    15    1
    32    15    16    1
    33    16    17   am
    34    16    18    2
    35    12    13   ar
    36    13    14   ar
    37     8     4   ar
    38    14     9   ar
    39    29    23    1
    40    28    26    1
    41    35    30   ar
    42    17    19    1
    43    17    20    1
@<TRIPOS>MOLECULE
*****
 39 43 0 0 0
SMALL
GASTEIGER

@<TRIPOS>ATOM
      1 C          61.4326   85.8374    9.2386 C.3     1  UNL1        0.0666
      2 S          60.8000   86.8281   10.1703 S.3     1  UNL1       -0.0756
      3 C          63.1355   87.6214   12.3071 C.3     1  UNL1        0.1340
      4 N          62.4830   88.5520   11.3282 N.ar    1  UNL1       -0.2884
      5 C          61.4095   88.1874   10.3460 C.ar    1  UNL1        0.1932
      6 N          61.0524   89.4207    9.5705 N.ar    1  UNL1       -0.1221
      7 N          61.9053   90.5476   10.0733 N.ar    1  UNL1       -0.1282
      8 C          62.7894   90.0108   11.1596 C.ar    1  UNL1        0.1668
      9 C          63.8022   90.7949   11.9403 C.ar    1  UNL1        0.0359
     10 C          64.5894   91.8811   11.2691 C.ar    1  UNL1        0.0027
     11 C          65.6021   92.6653   12.0498 C.ar    1  UNL1       -0.0037
     12 C          65.8276   92.3631   13.5017 C.ar    1  UNL1       -0.0131
     13 C          65.0404   91.2769   14.1729 C.ar    1  UNL1       -0.0037
     14 C          64.0277   90.4928   13.3921 C.ar    1  UNL1        0.0027
     15 C          66.8403   93.1473   14.2824 C.3     1  UNL1        0.1111
     16 C          68.0816   92.4746   14.7890 C.2     1  UNL1        0.2238
     17 N          69.1188   91.9872   13.8211 N.am    1  UNL1       -0.3285
     18 O          68.2858   92.2892   16.2634 O.2     1  UNL1       -0.2750
     19 H          68.9848   92.1088   12.8534 H       1  UNL1        0.1450
     20 H          69.9335   91.5456   14.1536 H       1  UNL1        0.1450
     21 C          62.9048   85.5621    9.3234 C.3     1  UNL1        0.0294
     22 C          63.4204   84.1688    9.1167 C.3     1  UNL1        0.0730
     23 N          63.3769   83.1783   10.2424 N.3     1  UNL1       -0.2726
     24 C          63.3660   81.6848   10.1027 C.3     1  UNL1        0.0721
     25 C          63.3189   81.0909   11.4793 C.3     1  UNL1        0.0190
     26 C          63.3007   82.2173   12.4697 C.3     1  UNL1        0.0201
     27 C          63.2555   81.3500   13.6927 C.3     1  UNL1        0.0061
     28 C          63.2663   82.8434   13.8324 C.3     1  UNL1        0.0237
     29 C          63.3365   83.5074   11.7053 C.3     1  UNL1        0.0724
     30 C          63.2528   84.0671   14.6997 C.ar    1  UNL1       -0.0225
     31 C          62.1529   84.2651   15.7003 C.ar    1  UNL1       -0.0043
     32 C          62.1393   85.4888   16.5676 C.ar    1  UNL1        0.0035
     33 C          63.2257   86.5146   16.4344 C.ar    1  UNL1        0.0714
     34 C          64.3256   86.3166   15.4339 C.ar    1  UNL1        0.0035
     35 C          64.3391   85.0928   14.5665 C.ar    1  UNL1       -0.0043
     36 C          63.2121   87.7383   17.3017 C.3     1  UNL1        0.4186
     37 F          63.1986   88.9621   18.1691 F       1  UNL1       -0.1659
     38 F          62.7815   86.9042   18.4717 F       1  UNL1       -0.1659
     39 F          63.6427   88.5723   16.1317 F       1  UNL1       -0.1659
@<TRIPOS>BOND
     1     3     4    1
     2     4     5   ar
     3     5     2    1
     4     2     1    1
     5     1    21    1
     6    21    22    1
     7    22    23    1
     8    23    24    1
     9    24    25    1
    10    26    25    1
    11    26    27    1
    12    27    28    1
    13    28    30    1
    14    30    31   ar
    15    31    32   ar
    16    32    33   ar
    17    33    36    1
    18    36    37    1
    19    36    38    1
    20    36    39    1
    21    33    34   ar
    22    34    35   ar
    23    26    29    1
    24     5     6   ar
    25     6     7   ar
    26     7     8   ar
    27     8     9    1
    28     9    10   ar
    29    10    11   ar
    30    11    12   ar
    31    12    15    1
    32    15    16    1
    33    16    17   am
    34    16    18    2
    35    12    13   ar
    36    13    14   ar
    37     8     4   ar
    38    14     9   ar
    39    29    23    1
    40    28    26    1
    41    35    30   ar
    42    17    19    1
    43    17    20    1
@<TRIPOS>MOLECULE
*****
 39 43 0 0 0
SMALL
GASTEIGER

@<TRIPOS>ATOM
      1 C          63.0850   83.3693   13.4491 C.3     1  UNL1        0.0666
      2 S          64.0190   83.5578   12.2907 S.3     1  UNL1       -0.0756
      3 C          61.7963   85.9266   11.9779 C.3     1  UNL1        0.1340
      4 N          62.4850   85.2099   10.8545 N.ar    1  UNL1       -0.2884
      5 C          63.5067   84.1210   10.9983 C.ar    1  UNL1        0.1932
      6 N          63.9261   83.6943    9.6228 N.ar    1  UNL1       -0.1221
      7 N          63.1636   84.5194    8.6289 N.ar    1  UNL1       -0.1282
      8 C          62.2730   85.4561    9.3901 C.ar    1  UNL1        0.1668
      9 C          61.3350   86.4623    8.7919 C.ar    1  UNL1        0.0359
     10 C          61.3827   87.8924    9.2420 C.ar    1  UNL1        0.0027
     11 C          60.4448   88.8986    8.6439 C.ar    1  UNL1       -0.0037
     12 C          59.4592   88.4746    7.5955 C.ar    1  UNL1       -0.0131
     13 C          59.4115   87.0446    7.1454 C.ar    1  UNL1       -0.0037
     14 C          60.3495   86.0384    7.7436 C.ar    1  UNL1        0.0027
     15 C          58.5212   89.4809    6.9974 C.3     1  UNL1        0.1111
     16 C          58.9863   90.3693    5.8818 C.2     1  UNL1        0.2238
     17 N          60.4490   90.4736    5.5662 N.am    1  UNL1       -0.3285
     18 O          57.9887   91.1533    5.0818 O.2     1  UNL1       -0.2750
     19 H          61.1038   89.9590    6.0912 H       1  UNL1        0.1450
     20 H          60.7542   91.0567    4.8340 H       1  UNL1        0.1450
     21 C          63.3551   84.0638   14.7510 C.3     1  UNL1        0.0294
     22 C          64.2812   85.2430   14.7941 C.3     1  UNL1        0.0730
     23 N          63.8767   86.4880   15.5264 N.3     1  UNL1       -0.2726
     24 C          63.1783   86.5432   16.8527 C.3     1  UNL1        0.0721
     25 C          62.9696   87.9857   17.2069 C.3     1  UNL1        0.0190
     26 C          63.5390   88.8221   16.0995 C.3     1  UNL1        0.0201
     27 C          63.1962   90.1477   16.7120 C.3     1  UNL1        0.0061
     28 C          63.8946   90.0925   15.3857 C.3     1  UNL1        0.0237
     29 C          64.0996   87.8964   15.0609 C.3     1  UNL1        0.0724
     30 C          64.5031   90.7941   14.2078 C.ar    1  UNL1       -0.0225
     31 C          63.7219   90.9392   12.9355 C.ar    1  UNL1       -0.0043
     32 C          64.3305   91.6408   11.7576 C.ar    1  UNL1        0.0035
     33 C          65.7202   92.1973   11.8520 C.ar    1  UNL1        0.0714
     34 C          66.5014   92.0522   13.1243 C.ar    1  UNL1        0.0035
     35 C          65.8929   91.3506   14.3022 C.ar    1  UNL1       -0.0043
     36 C          66.3287   92.8989   10.6741 C.3     1  UNL1        0.4186
     37 F          66.9373   93.6005    9.4962 F       1  UNL1       -0.1659
     38 F          67.5636   92.0586   10.8116 F       1  UNL1       -0.1659
     39 F          65.0938   93.7391   10.5366 F       1  UNL1       -0.1659
@<TRIPOS>BOND
     1     3     4    1
     2     4     5   ar
     3     5     2    1
     4     2     1    1
     5     1    21    1
     6    21    22    1
     7    22    23    1
     8    23    24    1
     9    24    25    1
    10    26    25    1
    11    26    27    1
    12    27    28    1
    13    28    30    1
    14    30    31   ar
    15    31    32   ar
    16    32    33   ar
    17    33    36    1
    18    36    37    1
    19    36    38    1
    20    36    39    1
    21    33    34   ar
    22    34    35   ar
    23    26    29    1
    24     5     6   ar
    25     6     7   ar
    26     7     8   ar
    27     8     9    1
    28     9    10   ar
    29    10    11   ar
    30    11    12   ar
    31    12    15    1
    32    15    16    1
    33    16    17   am
    34    16    18    2
    35    12    13   ar
    36    13    14   ar
    37     8     4   ar
    38    14     9   ar
    39    29    23    1
    40    28    26    1
    41    35    30   ar
    42    17    19    1
    43    17    20    1
@<TRIPOS>MOLECULE
*****
 39 43 0 0 0
SMALL
GASTEIGER

@<TRIPOS>ATOM
      1 C          62.6337   86.7845   17.2913 C.3     1  UNL1        0.0666
      2 S          63.4158   85.5684   16.8923 S.3     1  UNL1       -0.0756
      3 C          63.8148   86.7638   13.8820 C.3     1  UNL1        0.1340
      4 N          63.2778   85.4065   14.2277 N.ar    1  UNL1       -0.2884
      5 C          63.0944   84.8571   15.6114 C.ar    1  UNL1        0.1932
      6 N          62.5332   83.4714   15.4893 N.ar    1  UNL1       -0.1221
      7 N          62.3697   83.1644   14.0302 N.ar    1  UNL1       -0.1282
      8 C          62.8299   84.3603   13.2504 C.ar    1  UNL1        0.1668
      9 C          62.8403   84.4878   11.7559 C.ar    1  UNL1        0.0359
     10 C          63.7802   83.6520   10.9384 C.ar    1  UNL1        0.0027
     11 C          63.7906   83.7794    9.4439 C.ar    1  UNL1       -0.0037
     12 C          62.8611   84.7427    8.7668 C.ar    1  UNL1       -0.0131
     13 C          61.9213   85.5785    9.5843 C.ar    1  UNL1       -0.0037
     14 C          61.9110   85.4510   11.0788 C.ar    1  UNL1        0.0027
     15 C          62.8716   84.8702    7.2723 C.3     1  UNL1        0.1111
     16 C          61.5972   84.7118    6.4971 C.2     1  UNL1        0.2238
     17 N          61.6151   84.0482    5.1520 N.am    1  UNL1       -0.3285
     18 O          60.3050   85.2170    7.0670 O.2     1  UNL1       -0.2750
     19 H          62.4632   83.7166    4.7779 H       1  UNL1        0.1450
     20 H          60.7787   83.9442    4.6433 H       1  UNL1        0.1450
     21 C          63.2864   88.1350   17.2744 C.3     1  UNL1        0.0294
     22 C          62.6043   89.2893   16.6019 C.3     1  UNL1        0.0730
     23 N          63.3351   90.0933   15.5677 N.3     1  UNL1       -0.2726
     24 C          64.5034   90.9998   15.8193 C.3     1  UNL1        0.0721
     25 C          64.9163   91.5987   14.5075 C.3     1  UNL1        0.0190
     26 C          64.0032   91.0623   13.4451 C.3     1  UNL1        0.0201
     27 C          64.6345   91.8057   12.3056 C.3     1  UNL1        0.0061
     28 C          63.4662   90.8992   12.0540 C.3     1  UNL1        0.0237
     29 C          63.0259   90.1319   14.1005 C.3     1  UNL1        0.0724
     30 C          62.4817   90.2817   11.1057 C.ar    1  UNL1       -0.0225
     31 C          61.0720   90.7913   11.0510 C.ar    1  UNL1       -0.0043
     32 C          60.0875   90.1738   10.1026 C.ar    1  UNL1        0.0035
     33 C          60.5127   89.0466    9.2090 C.ar    1  UNL1        0.0714
     34 C          61.9224   88.5370    9.2637 C.ar    1  UNL1        0.0035
     35 C          62.9069   89.1545   10.2120 C.ar    1  UNL1       -0.0043
     36 C          59.5282   88.4291    8.2606 C.3     1  UNL1        0.4186
     37 F          58.5437   87.8115    7.3123 F       1  UNL1       -0.1659
     38 F          59.8435   89.4866    7.2447 F       1  UNL1       -0.1659
     39 F          59.2129   87.3716    9.2766 F       1  UNL1       -0.1659
@<TRIPOS>BOND
     1     3     4    1
     2     4     5   ar
     3     5     2    1
     4     2     1    1
     5     1    21    1
     6    21    22    1
     7    22    23    1
     8    23    24    1
     9    24    25    1
    10    26    25    1
    11    26    27    1
    12    27    28    1
    13    28    30    1
    14    30    31   ar
    15    31    32   ar
    16    32    33   ar
    17    33    36    1
    18    36    37    1
    19    36    38    1
    20    36    39    1
    21    33    34   ar
    22    34    35   ar
    23    26    29    1
    24     5     6   ar
    25     6     7   ar
    26     7     8   ar
    27     8     9    1
    28     9    10   ar
    29    10    11   ar
    30    11    12   ar
    31    12    15    1
    32    15    16    1
    33    16    17   am
    34    16    18    2
    35    12    13   ar
    36    13    14   ar
    37     8     4   ar
    38    14     9   ar
    39    29    23    1
    40    28    26    1
    41    35    30   ar
    42    17    19    1
    43    17    20    1
@<TRIPOS>MOLECULE
*****
 39 43 0 0 0
SMALL
GASTEIGER

@<TRIPOS>ATOM
      1 C          59.6220   89.9804    5.9714 C.3     1  UNL1        0.0666
      2 S          59.1314   89.0960    7.0791 S.3     1  UNL1       -0.0756
      3 C          60.0877   86.0143    7.5673 C.3     1  UNL1        0.1340
      4 N          60.5215   87.2088    8.3641 N.ar    1  UNL1       -0.2884
      5 C          60.0819   88.6253    8.1398 C.ar    1  UNL1        0.1932
      6 N          60.7598   89.4885    9.1622 N.ar    1  UNL1       -0.1221
      7 N          61.6183   88.6054   10.0185 N.ar    1  UNL1       -0.1282
      8 C          61.4710   87.1965    9.5253 C.ar    1  UNL1        0.1668
      9 C          62.1535   85.9876   10.0935 C.ar    1  UNL1        0.0359
     10 C          62.9802   85.1061    9.2050 C.ar    1  UNL1        0.0027
     11 C          63.6627   83.8972    9.7732 C.ar    1  UNL1       -0.0037
     12 C          63.5183   83.5698   11.2300 C.ar    1  UNL1       -0.0131
     13 C          62.6916   84.4513   12.1185 C.ar    1  UNL1       -0.0037
     14 C          62.0091   85.6602   11.5502 C.ar    1  UNL1        0.0027
     15 C          64.2008   82.3609   11.7981 C.3     1  UNL1        0.1111
     16 C          63.4648   81.4598   12.7449 C.2     1  UNL1        0.2238
     17 N          63.5407   81.7026   14.2232 N.am    1  UNL1       -0.3285
     18 O          62.6529   80.3160   12.2135 O.2     1  UNL1       -0.2750
     19 H          64.0736   82.4533   14.5721 H       1  UNL1        0.1450
     20 H          63.0577   81.1112   14.8446 H       1  UNL1        0.1450
     21 C          58.6753   90.9229    5.2891 C.3     1  UNL1        0.0294
     22 C          59.1555   92.2688    4.8331 C.3     1  UNL1        0.0730
     23 N          59.9703   92.3893    3.5795 N.3     1  UNL1       -0.2726
     24 C          61.4297   92.0708    3.4424 C.3     1  UNL1        0.0721
     25 C          61.8300   92.3340    2.0210 C.3     1  UNL1        0.0190
     26 C          60.6181   92.8151    1.2796 C.3     1  UNL1        0.0201
     27 C          61.3017   92.9852   -0.0447 C.3     1  UNL1        0.0061
     28 C          59.8424   93.3037    0.0923 C.3     1  UNL1        0.0237
     29 C          59.4687   92.8493    2.2428 C.3     1  UNL1        0.0724
     30 C          58.5519   93.7696   -0.5140 C.ar    1  UNL1       -0.0225
     31 C          57.5310   92.7681   -0.9663 C.ar    1  UNL1       -0.0043
     32 C          56.2406   93.2340   -1.5727 C.ar    1  UNL1        0.0035
     33 C          55.9710   94.7015   -1.7266 C.ar    1  UNL1        0.0714
     34 C          56.9920   95.7031   -1.2743 C.ar    1  UNL1        0.0035
     35 C          58.2824   95.2372   -0.6680 C.ar    1  UNL1       -0.0043
     36 C          54.6806   95.1675   -2.3330 C.3     1  UNL1        0.4186
     37 F          53.3901   95.6334   -2.9393 F       1  UNL1       -0.1659
     38 F          54.2126   95.6267   -0.9839 F       1  UNL1       -0.1659
     39 F          55.1487   94.7082   -3.6820 F       1  UNL1       -0.1659
@<TRIPOS>BOND
     1     3     4    1
     2     4     5   ar
     3     5     2    1
     4     2     1    1
     5     1    21    1
     6    21    22    1
     7    22    23    1
     8    23    24    1
     9    24    25    1
    10    26    25    1
    11    26    27    1
    12    27    28    1
    13    28    30    1
    14    30    31   ar
    15    31    32   ar
    16    32    33   ar
    17    33    36    1
    18    36    37    1
    19    36    38    1
    20    36    39    1
    21    33    34   ar
    22    34    35   ar
    23    26    29    1
    24     5     6   ar
    25     6     7   ar
    26     7     8   ar
    27     8     9    1
    28     9    10   ar
    29    10    11   ar
    30    11    12   ar
    31    12    15    1
    32    15    16    1
    33    16    17   am
    34    16    18    2
    35    12    13   ar
    36    13    14   ar
    37     8     4   ar
    38    14     9   ar
    39    29    23    1
    40    28    26    1
    41    35    30   ar
    42    17    19    1
    43    17    20    1
@<TRIPOS>MOLECULE
*****
 39 43 0 0 0
SMALL
GASTEIGER

@<TRIPOS>ATOM
      1 C          63.0819   87.5114   17.0521 C.3     1  UNL1        0.0666
      2 S          63.1650   86.0138   17.0613 S.3     1  UNL1       -0.0756
      3 C          61.6006   83.9170   15.1104 C.3     1  UNL1        0.1340
      4 N          63.0394   84.3247   14.9934 N.ar    1  UNL1       -0.2884
      5 C          63.7585   85.2885   15.8901 C.ar    1  UNL1        0.1932
      6 N          65.1752   85.3996   15.4100 N.ar    1  UNL1       -0.1221
      7 N          65.3318   84.5045   14.2165 N.ar    1  UNL1       -0.1282
      8 C          64.0118   83.8402   13.9590 C.ar    1  UNL1        0.1668
      9 C          63.7161   82.8629   12.8601 C.ar    1  UNL1        0.0359
     10 C          64.0519   83.2076   11.4394 C.ar    1  UNL1        0.0027
     11 C          63.7562   82.2303   10.3405 C.ar    1  UNL1       -0.0037
     12 C          63.1246   80.9083   10.6625 C.ar    1  UNL1       -0.0131
     13 C          62.7888   80.5636   12.0832 C.ar    1  UNL1       -0.0037
     14 C          63.0846   81.5410   13.1820 C.ar    1  UNL1        0.0027
     15 C          62.8289   79.9311    9.5636 C.3     1  UNL1        0.1111
     16 C          63.2031   78.4873    9.7231 C.2     1  UNL1        0.2238
     17 N          62.4217   77.6084   10.6543 N.am    1  UNL1       -0.3285
     18 O          64.3586   77.9223    8.9516 O.2     1  UNL1       -0.2750
     19 H          61.6632   77.9792   11.1607 H       1  UNL1        0.1450
     20 H          62.6672   76.6608   10.7590 H       1  UNL1        0.1450
     21 C          63.7125   88.2908   15.9363 C.3     1  UNL1        0.0294
     22 C          63.4242   89.7553   15.7879 C.3     1  UNL1        0.0730
     23 N          63.8487   90.4812   14.5458 N.3     1  UNL1       -0.2726
     24 C          64.8583   91.5883   14.4731 C.3     1  UNL1        0.0721
     25 C          64.9717   92.0187   13.0407 C.3     1  UNL1        0.0190
     26 C          64.0322   91.1778   12.2281 C.3     1  UNL1        0.0201
     27 C          64.3562   91.8118   10.9079 C.3     1  UNL1        0.0061
     28 C          63.3466   90.7048   10.9806 C.3     1  UNL1        0.0237
     29 C          63.3382   90.2275   13.1584 C.3     1  UNL1        0.0724
     30 C          62.3679   89.7925   10.3024 C.ar    1  UNL1       -0.0225
     31 C          62.6908   88.3373   10.1351 C.ar    1  UNL1       -0.0043
     32 C          61.7121   87.4250    9.4569 C.ar    1  UNL1        0.0035
     33 C          60.4106   87.9681    8.9460 C.ar    1  UNL1        0.0714
     34 C          60.0877   89.4234    9.1133 C.ar    1  UNL1        0.0035
     35 C          61.0664   90.3356    9.7915 C.ar    1  UNL1       -0.0043
     36 C          59.4319   87.0559    8.2677 C.3     1  UNL1        0.4186
     37 F          58.4532   86.1436    7.5895 F       1  UNL1       -0.1659
     38 F          58.6514   88.2458    7.7936 F       1  UNL1       -0.1659
     39 F          60.2124   85.8660    8.7419 F       1  UNL1       -0.1659
@<TRIPOS>BOND
     1     3     4    1
     2     4     5   ar
     3     5     2    1
     4     2     1    1
     5     1    21    1
     6    21    22    1
     7    22    23    1
     8    23    24    1
     9    24    25    1
    10    26    25    1
    11    26    27    1
    12    27    28    1
    13    28    30    1
    14    30    31   ar
    15    31    32   ar
    16    32    33   ar
    17    33    36    1
    18    36    37    1
    19    36    38    1
    20    36    39    1
    21    33    34   ar
    22    34    35   ar
    23    26    29    1
    24     5     6   ar
    25     6     7   ar
    26     7     8   ar
    27     8     9    1
    28     9    10   ar
    29    10    11   ar
    30    11    12   ar
    31    12    15    1
    32    15    16    1
    33    16    17   am
    34    16    18    2
    35    12    13   ar
    36    13    14   ar
    37     8     4   ar
    38    14     9   ar
    39    29    23    1
    40    28    26    1
    41    35    30   ar
    42    17    19    1
    43    17    20    1
@<TRIPOS>MOLECULE
*****
 39 43 0 0 0
SMALL
GASTEIGER

@<TRIPOS>ATOM
      1 C          62.9978   89.1178   17.1021 C.3     1  UNL1        0.0666
      2 S          63.2589   87.6942   17.4959 S.3     1  UNL1       -0.0756
      3 C          64.7180   86.2191   14.9770 C.3     1  UNL1        0.1340
      4 N          63.3583   85.8953   15.5213 N.ar    1  UNL1       -0.2884
      5 C          62.6876   86.5733   16.6791 C.ar    1  UNL1        0.1932
      6 N          61.3453   85.9337   16.8767 N.ar    1  UNL1       -0.1221
      7 N          61.1864   84.8603   15.8410 N.ar    1  UNL1       -0.1282
      8 C          62.4304   84.8365   15.0033 C.ar    1  UNL1        0.1668
      9 C          62.6995   83.9158   13.8501 C.ar    1  UNL1        0.0359
     10 C          63.1030   82.4936   14.1042 C.ar    1  UNL1        0.0027
     11 C          63.3720   81.5728   12.9510 C.ar    1  UNL1       -0.0037
     12 C          63.2374   82.0744   11.5437 C.ar    1  UNL1       -0.0131
     13 C          62.8339   83.4965   11.2896 C.ar    1  UNL1       -0.0037
     14 C          62.5649   84.4172   12.4428 C.ar    1  UNL1        0.0027
     15 C          63.5064   81.1536   10.3905 C.3     1  UNL1        0.1111
     16 C          63.0495   79.7260   10.4482 C.2     1  UNL1        0.2238
     17 N          63.1325   78.8620    9.2248 N.am    1  UNL1       -0.3285
     18 O          62.5096   79.1625   11.7291 O.2     1  UNL1       -0.2750
     19 H          63.4868   79.2318    8.3841 H       1  UNL1        0.1450
     20 H          62.8325   77.9250    9.2627 H       1  UNL1        0.1450
     21 C          63.4260   89.6133   15.7526 C.3     1  UNL1        0.0294
     22 C          64.2295   90.8747   15.6369 C.3     1  UNL1        0.0730
     23 N          64.5611   91.4313   14.2841 N.3     1  UNL1       -0.2726
     24 C          65.5792   92.4938   13.9932 C.3     1  UNL1        0.0721
     25 C          65.5801   92.7423   12.5139 C.3     1  UNL1        0.0190
     26 C          64.5626   91.8334   11.8906 C.3     1  UNL1        0.0201
     27 C          64.7860   92.2920   10.4800 C.3     1  UNL1        0.0061
     28 C          63.7679   91.2295   10.7708 C.3     1  UNL1        0.0237
     29 C          63.9328   91.0231   12.9846 C.3     1  UNL1        0.0724
     30 C          62.7213   90.2673   10.2923 C.ar    1  UNL1       -0.0225
     31 C          63.0701   88.8238   10.0809 C.ar    1  UNL1       -0.0043
     32 C          62.0235   87.8617    9.6024 C.ar    1  UNL1        0.0035
     33 C          60.6282   88.3431    9.3353 C.ar    1  UNL1        0.0714
     34 C          60.2795   89.7866    9.5467 C.ar    1  UNL1        0.0035
     35 C          61.3260   90.7487   10.0252 C.ar    1  UNL1       -0.0043
     36 C          59.5816   87.3810    8.8568 C.3     1  UNL1        0.4186
     37 F          58.5350   86.4188    8.3782 F       1  UNL1       -0.1659
     38 F          60.1794   86.3046    9.7135 F       1  UNL1       -0.1659
     39 F          58.9839   88.4574    8.0000 F       1  UNL1       -0.1659
@<TRIPOS>BOND
     1     3     4    1
     2     4     5   ar
     3     5     2    1
     4     2     1    1
     5     1    21    1
     6    21    22    1
     7    22    23    1
     8    23    24    1
     9    24    25    1
    10    26    25    1
    11    26    27    1
    12    27    28    1
    13    28    30    1
    14    30    31   ar
    15    31    32   ar
    16    32    33   ar
    17    33    36    1
    18    36    37    1
    19    36    38    1
    20    36    39    1
    21    33    34   ar
    22    34    35   ar
    23    26    29    1
    24     5     6   ar
    25     6     7   ar
    26     7     8   ar
    27     8     9    1
    28     9    10   ar
    29    10    11   ar
    30    11    12   ar
    31    12    15    1
    32    15    16    1
    33    16    17   am
    34    16    18    2
    35    12    13   ar
    36    13    14   ar
    37     8     4   ar
    38    14     9   ar
    39    29    23    1
    40    28    26    1
    41    35    30   ar
    42    17    19    1
    43    17    20    1
