@<TRIPOS>MOLECULE
*****
 25 28 0 0 0
SMALL
GASTEIGER

@<TRIPOS>ATOM
      1 C          62.1805   88.9623   11.7425 C.ar    1  UNL1        0.1917
      2 N          62.2094   88.4832   13.1637 N.ar    1  UNL1       -0.1268
      3 N          63.1855   89.3346   13.9201 N.ar    1  UNL1       -0.1316
      4 C          63.7600   90.3399   12.9665 C.ar    1  UNL1        0.1615
      5 N          63.1389   90.1098   11.6206 N.ar    1  UNL1       -0.2940
      6 C          63.5262   90.9748   10.4580 C.3     1  UNL1        0.1302
      7 C          64.5346   92.0701   10.6412 C.3     1  UNL1        0.1186
      8 N          65.1557   92.3002   11.9871 N.am    1  UNL1       -0.2688
      9 C          66.1642   93.3954   12.1703 C.2     1  UNL1        0.2493
     10 O          66.7853   93.6255   13.5161 O.2     1  UNL1       -0.2699
     11 C          64.7684   91.4351   13.1497 C.3     1  UNL1        0.1343
     12 C          65.3895   91.6652   14.4955 C.3     1  UNL1        0.0298
     13 C          66.5514   94.2604   11.0077 C.ar    1  UNL1        0.0536
     14 C          67.3312   93.6779    9.8664 C.ar    1  UNL1        0.0054
     15 C          67.7185   94.5430    8.7037 C.ar    1  UNL1        0.0115
     16 C          67.3260   95.9906    8.6825 C.ar    1  UNL1        0.0577
     17 CL         67.7133   96.8557    7.5199 Cl      1  UNL1       -0.0822
     18 C          66.5463   96.5731    9.8239 C.ar    1  UNL1        0.0115
     19 C          66.1590   95.7081   10.9864 C.ar    1  UNL1        0.0054
     20 C          59.2291   88.5452    7.3841 C.3     1  UNL1        0.0744
     21 C          59.9842   88.2020    8.6340 C.ar    1  UNL1        0.1481
     22 N          60.1130   86.8354    9.2390 N.ar    1  UNL1       -0.1929
     23 S          60.9515   86.9539   10.4772 S.2     1  UNL1        0.0369
     24 C          61.3408   88.3936   10.6373 C.ar    1  UNL1        0.1652
     25 N          60.7430   89.1650    9.4981 N.ar    1  UNL1       -0.2190
@<TRIPOS>BOND
     1    20    21    1
     2    21    22   ar
     3    22    23   ar
     4    23    24   ar
     5    24     1    1
     6     1     2   ar
     7     2     3   ar
     8     3     4   ar
     9     4     5   ar
    10     5     6    1
    11     6     7    1
    12     7     8    1
    13     8     9   am
    14     9    10    2
    15     9    13    1
    16    13    14   ar
    17    14    15   ar
    18    15    16   ar
    19    16    17    1
    20    16    18   ar
    21    18    19   ar
    22     8    11    1
    23    11    12    1
    24    24    25   ar
    25    25    21   ar
    26     5     1   ar
    27    19    13   ar
    28    11     4    1
@<TRIPOS>MOLECULE
*****
 25 28 0 0 0
SMALL
GASTEIGER

@<TRIPOS>ATOM
      1 C          66.1213   93.5107   12.2402 C.ar    1  UNL1        0.1917
      2 N          66.7209   93.3637   13.6073 N.ar    1  UNL1       -0.1268
      3 N          66.1920   92.0968   14.2116 N.ar    1  UNL1       -0.1316
      4 C          65.2655   91.4608   13.2180 C.ar    1  UNL1        0.1615
      5 N          65.2218   92.3347   11.9997 N.ar    1  UNL1       -0.2940
      6 C          64.3686   91.9466   10.8286 C.3     1  UNL1        0.1302
      7 C          63.5591   90.6846   10.8758 C.3     1  UNL1        0.1186
      8 N          63.6028   89.8108   12.0942 N.am    1  UNL1       -0.2688
      9 C          62.7933   88.5489   12.1416 C.2     1  UNL1        0.2493
     10 O          62.8370   87.6750   13.3600 O.2     1  UNL1       -0.2699
     11 C          64.4560   90.1989   13.2654 C.3     1  UNL1        0.1343
     12 C          64.4997   89.3251   14.4838 C.3     1  UNL1        0.0298
     13 C          61.9402   88.1608   10.9705 C.ar    1  UNL1        0.0536
     14 C          62.2470   86.9106   10.2005 C.ar    1  UNL1        0.0054
     15 C          61.3938   86.5226    9.0294 C.ar    1  UNL1        0.0115
     16 C          60.2338   87.3847    8.6283 C.ar    1  UNL1        0.0577
     17 CL         59.3805   86.9967    7.4571 Cl      1  UNL1       -0.0822
     18 C          59.9269   88.6349    9.3982 C.ar    1  UNL1        0.0115
     19 C          60.7800   89.0230   10.5693 C.ar    1  UNL1        0.0054
     20 C          67.5662   96.2171    7.9427 C.3     1  UNL1        0.0744
     21 C          67.0405   95.8801    9.3066 C.ar    1  UNL1        0.1481
     22 N          66.4973   96.8560   10.3079 N.ar    1  UNL1       -0.1929
     23 S          66.0868   96.0871   11.5288 S.2     1  UNL1        0.0369
     24 C          66.3764   94.6362   11.2820 C.ar    1  UNL1        0.1652
     25 N          66.9658   94.5082    9.9086 N.ar    1  UNL1       -0.2190
@<TRIPOS>BOND
     1    20    21    1
     2    21    22   ar
     3    22    23   ar
     4    23    24   ar
     5    24     1    1
     6     1     2   ar
     7     2     3   ar
     8     3     4   ar
     9     4     5   ar
    10     5     6    1
    11     6     7    1
    12     7     8    1
    13     8     9   am
    14     9    10    2
    15     9    13    1
    16    13    14   ar
    17    14    15   ar
    18    15    16   ar
    19    16    17    1
    20    16    18   ar
    21    18    19   ar
    22     8    11    1
    23    11    12    1
    24    24    25   ar
    25    25    21   ar
    26     5     1   ar
    27    19    13   ar
    28    11     4    1
@<TRIPOS>MOLECULE
*****
 25 28 0 0 0
SMALL
GASTEIGER

@<TRIPOS>ATOM
      1 C          64.1114   90.9783   14.4151 C.ar    1  UNL1        0.1917
      2 N          63.8614   91.6341   15.7408 N.ar    1  UNL1       -0.1268
      3 N          63.4831   90.5650   16.7227 N.ar    1  UNL1       -0.1316
      4 C          63.4993   89.2486   16.0038 C.ar    1  UNL1        0.1615
      5 N          63.8877   89.5040   14.5776 N.ar    1  UNL1       -0.2940
      6 C          63.9874   88.3612   13.6112 C.3     1  UNL1        0.1302
      7 C          63.6987   86.9628   14.0710 C.3     1  UNL1        0.1186
      8 N          63.3104   86.7074   15.4971 N.am    1  UNL1       -0.2688
      9 C          63.0217   85.3091   15.9569 C.2     1  UNL1        0.2493
     10 O          62.6334   85.0536   17.3830 O.2     1  UNL1       -0.2699
     11 C          63.2107   87.8503   16.4635 C.3     1  UNL1        0.1343
     12 C          62.8223   87.5948   17.8897 C.3     1  UNL1        0.0298
     13 C          63.1214   84.1663   14.9905 C.ar    1  UNL1        0.0536
     14 C          62.0350   83.1335   14.9356 C.ar    1  UNL1        0.0054
     15 C          62.1348   81.9906   13.9691 C.ar    1  UNL1        0.0115
     16 C          63.3209   81.8806   13.0576 C.ar    1  UNL1        0.0577
     17 CL         63.4207   80.7377   12.0911 Cl      1  UNL1       -0.0822
     18 C          64.4073   82.9134   13.1125 C.ar    1  UNL1        0.0115
     19 C          64.3076   84.0562   14.0789 C.ar    1  UNL1        0.0054
     20 C          66.4791   94.2617   11.0248 C.3     1  UNL1        0.0744
     21 C          65.6028   93.1838   11.5908 C.ar    1  UNL1        0.1481
     22 N          64.6668   92.3086   10.8113 N.ar    1  UNL1       -0.1929
     23 S          63.9941   91.3758   11.7744 S.2     1  UNL1        0.0369
     24 C          64.5145   91.6747   13.1492 C.ar    1  UNL1        0.1652
     25 N          65.5088   92.7921   13.0357 N.ar    1  UNL1       -0.2190
@<TRIPOS>BOND
     1    20    21    1
     2    21    22   ar
     3    22    23   ar
     4    23    24   ar
     5    24     1    1
     6     1     2   ar
     7     2     3   ar
     8     3     4   ar
     9     4     5   ar
    10     5     6    1
    11     6     7    1
    12     7     8    1
    13     8     9   am
    14     9    10    2
    15     9    13    1
    16    13    14   ar
    17    14    15   ar
    18    15    16   ar
    19    16    17    1
    20    16    18   ar
    21    18    19   ar
    22     8    11    1
    23    11    12    1
    24    24    25   ar
    25    25    21   ar
    26     5     1   ar
    27    19    13   ar
    28    11     4    1
@<TRIPOS>MOLECULE
*****
 25 28 0 0 0
SMALL
GASTEIGER

@<TRIPOS>ATOM
      1 C          63.2506   88.6562   12.7698 C.ar    1  UNL1        0.1917
      2 N          63.5156   88.3987   14.2236 N.ar    1  UNL1       -0.1268
      3 N          64.3463   89.5310   14.7508 N.ar    1  UNL1       -0.1316
      4 C          64.5946   90.4882   13.6229 C.ar    1  UNL1        0.1615
      5 N          63.9174   89.9475   12.3986 N.ar    1  UNL1       -0.2940
      6 C          63.9954   90.7009   11.1039 C.3     1  UNL1        0.1302
      7 C          64.7507   91.9950   11.0335 C.3     1  UNL1        0.1186
      8 N          65.4279   92.5357   12.2578 N.am    1  UNL1       -0.2688
      9 C          66.1832   93.8297   12.1875 C.2     1  UNL1        0.2493
     10 O          66.8604   94.3704   13.4119 O.2     1  UNL1       -0.2699
     11 C          65.3499   91.7822   13.5526 C.3     1  UNL1        0.1343
     12 C          66.0271   92.3229   14.7770 C.3     1  UNL1        0.0298
     13 C          66.2612   94.5831   10.8928 C.ar    1  UNL1        0.0536
     14 C          67.1551   94.0929    9.7925 C.ar    1  UNL1        0.0054
     15 C          67.2331   94.8463    8.4977 C.ar    1  UNL1        0.0115
     16 C          66.4172   96.0899    8.3034 C.ar    1  UNL1        0.0577
     17 CL         66.4952   96.8434    7.0086 Cl      1  UNL1       -0.0822
     18 C          65.5233   96.5801    9.4037 C.ar    1  UNL1        0.0115
     19 C          65.4453   95.8267   10.6984 C.ar    1  UNL1        0.0054
     20 C          59.9947   87.0334    8.9427 C.3     1  UNL1        0.0744
     21 C          60.9612   87.0308   10.0898 C.ar    1  UNL1        0.1481
     22 N          61.5145   85.8158   10.7737 N.ar    1  UNL1       -0.1929
     23 S          62.4395   86.2768   11.8610 S.2     1  UNL1        0.0369
     24 C          62.4578   87.7767   11.8489 C.ar    1  UNL1        0.1652
     25 N          61.5442   88.2427   10.7543 N.ar    1  UNL1       -0.2190
@<TRIPOS>BOND
     1    20    21    1
     2    21    22   ar
     3    22    23   ar
     4    23    24   ar
     5    24     1    1
     6     1     2   ar
     7     2     3   ar
     8     3     4   ar
     9     4     5   ar
    10     5     6    1
    11     6     7    1
    12     7     8    1
    13     8     9   am
    14     9    10    2
    15     9    13    1
    16    13    14   ar
    17    14    15   ar
    18    15    16   ar
    19    16    17    1
    20    16    18   ar
    21    18    19   ar
    22     8    11    1
    23    11    12    1
    24    24    25   ar
    25    25    21   ar
    26     5     1   ar
    27    19    13   ar
    28    11     4    1
@<TRIPOS>MOLECULE
*****
 25 28 0 0 0
SMALL
GASTEIGER

@<TRIPOS>ATOM
      1 C          64.2741   91.1053   13.3180 C.ar    1  UNL1        0.1917
      2 N          63.6126   91.9812   12.2957 N.ar    1  UNL1       -0.1268
      3 N          62.8170   91.1019   11.3771 N.ar    1  UNL1       -0.1316
      4 C          62.9869   89.6826   11.8316 C.ar    1  UNL1        0.1615
      5 N          63.8875   89.6846   13.0311 N.ar    1  UNL1       -0.2940
      6 C          64.2391   88.3927   13.7073 C.3     1  UNL1        0.1302
      7 C          63.6901   87.0985   13.1838 C.3     1  UNL1        0.1186
      8 N          62.7895   87.0965   11.9842 N.am    1  UNL1       -0.2688
      9 C          62.2406   85.8024   11.4607 C.2     1  UNL1        0.2493
     10 O          61.3400   85.8004   10.2611 O.2     1  UNL1       -0.2699
     11 C          62.4380   88.3885   11.3081 C.3     1  UNL1        0.1343
     12 C          61.5374   88.3865   10.1085 C.3     1  UNL1        0.0298
     13 C          62.5921   84.5105   12.1368 C.ar    1  UNL1        0.0536
     14 C          63.2135   83.3961   11.3482 C.ar    1  UNL1        0.0054
     15 C          63.5651   82.1040   12.0244 C.ar    1  UNL1        0.0115
     16 C          63.2953   81.9265   13.4892 C.ar    1  UNL1        0.0577
     17 CL         63.6469   80.6345   14.1654 Cl      1  UNL1       -0.0822
     18 C          62.6740   83.0409   14.2778 C.ar    1  UNL1        0.0115
     19 C          62.3224   84.3329   13.6017 C.ar    1  UNL1        0.0054
     20 C          68.5620   92.4670   16.0821 C.3     1  UNL1        0.0744
     21 C          67.1368   92.1945   15.7021 C.ar    1  UNL1        0.1481
     22 N          65.9393   92.3686   16.5886 N.ar    1  UNL1       -0.1929
     23 S          64.7212   91.9817   15.8033 S.2     1  UNL1        0.0369
     24 C          65.1658   91.5686   14.4317 C.ar    1  UNL1        0.1652
     25 N          66.6588   91.7001   14.3691 N.ar    1  UNL1       -0.2190
@<TRIPOS>BOND
     1    20    21    1
     2    21    22   ar
     3    22    23   ar
     4    23    24   ar
     5    24     1    1
     6     1     2   ar
     7     2     3   ar
     8     3     4   ar
     9     4     5   ar
    10     5     6    1
    11     6     7    1
    12     7     8    1
    13     8     9   am
    14     9    10    2
    15     9    13    1
    16    13    14   ar
    17    14    15   ar
    18    15    16   ar
    19    16    17    1
    20    16    18   ar
    21    18    19   ar
    22     8    11    1
    23    11    12    1
    24    24    25   ar
    25    25    21   ar
    26     5     1   ar
    27    19    13   ar
    28    11     4    1
@<TRIPOS>MOLECULE
*****
 25 28 0 0 0
SMALL
GASTEIGER

@<TRIPOS>ATOM
      1 C          62.2798   85.2611   12.1512 C.ar    1  UNL1        0.1917
      2 N          61.3963   85.3016   10.9397 N.ar    1  UNL1       -0.1268
      3 N          61.4018   86.7045   10.4088 N.ar    1  UNL1       -0.1316
      4 C          62.2887   87.5310   11.2921 C.ar    1  UNL1        0.1615
      5 N          62.8314   86.6389   12.3690 N.ar    1  UNL1       -0.2940
      6 C          63.7576   87.1964   13.4088 C.3     1  UNL1        0.1302
      7 C          64.1413   88.6461   13.3717 C.3     1  UNL1        0.1186
      8 N          63.5986   89.5382   12.2948 N.am    1  UNL1       -0.2688
      9 C          63.9822   90.9878   12.2576 C.2     1  UNL1        0.2493
     10 O          63.4396   91.8799   11.1807 O.2     1  UNL1       -0.2699
     11 C          62.6723   88.9806   11.2550 C.3     1  UNL1        0.1343
     12 C          62.1297   89.8726   10.1780 C.3     1  UNL1        0.0298
     13 C          64.9085   91.5453   13.2974 C.ar    1  UNL1        0.0536
     14 C          66.2134   92.1606   12.8870 C.ar    1  UNL1        0.0054
     15 C          67.1397   92.7182   13.9268 C.ar    1  UNL1        0.0115
     16 C          66.7610   92.6604   15.3770 C.ar    1  UNL1        0.0577
     17 CL         67.6872   93.2180   16.4169 Cl      1  UNL1       -0.0822
     18 C          65.4560   92.0452   15.7875 C.ar    1  UNL1        0.0115
     19 C          64.5298   91.4876   14.7477 C.ar    1  UNL1        0.0054
     20 C          62.8173   80.2524   13.7338 C.3     1  UNL1        0.0744
     21 C          62.8092   81.7523   13.7240 C.ar    1  UNL1        0.1481
     22 N          63.1842   82.6435   14.8708 N.ar    1  UNL1       -0.1929
     23 S          63.0315   84.0665   14.4212 S.2     1  UNL1        0.0369
     24 C          62.5622   84.0546   12.9966 C.ar    1  UNL1        0.1652
     25 N          62.4248   82.6244   12.5657 N.ar    1  UNL1       -0.2190
@<TRIPOS>BOND
     1    20    21    1
     2    21    22   ar
     3    22    23   ar
     4    23    24   ar
     5    24     1    1
     6     1     2   ar
     7     2     3   ar
     8     3     4   ar
     9     4     5   ar
    10     5     6    1
    11     6     7    1
    12     7     8    1
    13     8     9   am
    14     9    10    2
    15     9    13    1
    16    13    14   ar
    17    14    15   ar
    18    15    16   ar
    19    16    17    1
    20    16    18   ar
    21    18    19   ar
    22     8    11    1
    23    11    12    1
    24    24    25   ar
    25    25    21   ar
    26     5     1   ar
    27    19    13   ar
    28    11     4    1
@<TRIPOS>MOLECULE
*****
 25 28 0 0 0
SMALL
GASTEIGER

@<TRIPOS>ATOM
      1 C          59.4900   88.6458    7.2586 C.ar    1  UNL1        0.1917
      2 N          59.0352   87.2205    7.1508 N.ar    1  UNL1       -0.1268
      3 N          59.6586   86.4487    8.2758 N.ar    1  UNL1       -0.1316
      4 C          60.4987   87.3970    9.0789 C.ar    1  UNL1        0.1615
      5 N          60.3945   88.7549    8.4502 N.ar    1  UNL1       -0.2940
      6 C          61.1366   89.9153    9.0440 C.3     1  UNL1        0.1302
      7 C          61.9831   89.7178   10.2666 C.3     1  UNL1        0.1186
      8 N          62.0873   88.3600   10.8953 N.am    1  UNL1       -0.2688
      9 C          62.9337   88.1624   12.1178 C.2     1  UNL1        0.2493
     10 O          63.0379   86.8046   12.7465 O.2     1  UNL1       -0.2699
     11 C          61.3451   87.1995   10.3014 C.3     1  UNL1        0.1343
     12 C          61.4493   85.8416   10.9301 C.3     1  UNL1        0.0298
     13 C          63.6758   89.3228   12.7116 C.ar    1  UNL1        0.0536
     14 C          64.2822   89.2050   14.0786 C.ar    1  UNL1        0.0054
     15 C          65.0244   90.3655   14.6724 C.ar    1  UNL1        0.0115
     16 C          65.1602   91.6437   13.8992 C.ar    1  UNL1        0.0577
     17 CL         65.9024   92.8042   14.4930 Cl      1  UNL1       -0.0822
     18 C          64.5539   91.7615   12.5323 C.ar    1  UNL1        0.0115
     19 C          63.8117   90.6011   11.9385 C.ar    1  UNL1        0.0054
     20 C          59.7792   92.6096    3.7822 C.3     1  UNL1        0.0744
     21 C          59.2404   91.5874    4.7387 C.ar    1  UNL1        0.1481
     22 N          57.7973   91.3895    5.0969 N.ar    1  UNL1       -0.1929
     23 S          57.7151   90.2634    6.0845 S.2     1  UNL1        0.0369
     24 C          59.1074   89.7655    6.3366 C.ar    1  UNL1        0.1652
     25 N          60.0501   90.5838    5.5049 N.ar    1  UNL1       -0.2190
@<TRIPOS>BOND
     1    20    21    1
     2    21    22   ar
     3    22    23   ar
     4    23    24   ar
     5    24     1    1
     6     1     2   ar
     7     2     3   ar
     8     3     4   ar
     9     4     5   ar
    10     5     6    1
    11     6     7    1
    12     7     8    1
    13     8     9   am
    14     9    10    2
    15     9    13    1
    16    13    14   ar
    17    14    15   ar
    18    15    16   ar
    19    16    17    1
    20    16    18   ar
    21    18    19   ar
    22     8    11    1
    23    11    12    1
    24    24    25   ar
    25    25    21   ar
    26     5     1   ar
    27    19    13   ar
    28    11     4    1
@<TRIPOS>MOLECULE
*****
 25 28 0 0 0
SMALL
GASTEIGER

@<TRIPOS>ATOM
      1 C          61.3482   87.7953   10.5342 C.ar    1  UNL1        0.1917
      2 N          61.3792   86.6856   11.5430 N.ar    1  UNL1       -0.1268
      3 N          62.3293   87.0785   12.6351 N.ar    1  UNL1       -0.1316
      4 C          62.8856   88.4310   12.3014 C.ar    1  UNL1        0.1615
      5 N          62.2792   88.8740   11.0028 N.ar    1  UNL1       -0.2940
      6 C          62.6532   90.2023   10.4150 C.3     1  UNL1        0.1302
      7 C          63.6335   91.0878   11.1257 C.3     1  UNL1        0.1186
      8 N          64.2399   90.6448   12.4242 N.am    1  UNL1       -0.2688
      9 C          65.2201   91.5302   13.1349 C.2     1  UNL1        0.2493
     10 O          65.8265   91.0872   14.4334 O.2     1  UNL1       -0.2699
     11 C          63.8659   89.3164   13.0120 C.3     1  UNL1        0.1343
     12 C          64.4722   88.8734   14.3105 C.3     1  UNL1        0.0298
     13 C          65.5941   92.8586   12.5470 C.ar    1  UNL1        0.0536
     14 C          66.2395   93.9044   13.4071 C.ar    1  UNL1        0.0054
     15 C          66.6134   95.2328   12.8192 C.ar    1  UNL1        0.0115
     16 C          66.3420   95.5153   11.3713 C.ar    1  UNL1        0.0577
     17 CL         66.7159   96.8437   10.7834 Cl      1  UNL1       -0.0822
     18 C          65.6966   94.4695   10.5112 C.ar    1  UNL1        0.0115
     19 C          65.3226   93.1411   11.0991 C.ar    1  UNL1        0.0054
     20 C          58.7185   89.5111    6.2891 C.3     1  UNL1        0.0744
     21 C          59.3212   88.6104    7.3260 C.ar    1  UNL1        0.1481
     22 N          59.2203   87.1141    7.3602 N.ar    1  UNL1       -0.1929
     23 S          59.9674   86.6267    8.5662 S.2     1  UNL1        0.0369
     24 C          60.5300   87.8216    9.2773 C.ar    1  UNL1        0.1652
     25 N          60.1306   89.0476    8.5108 N.ar    1  UNL1       -0.2190
@<TRIPOS>BOND
     1    20    21    1
     2    21    22   ar
     3    22    23   ar
     4    23    24   ar
     5    24     1    1
     6     1     2   ar
     7     2     3   ar
     8     3     4   ar
     9     4     5   ar
    10     5     6    1
    11     6     7    1
    12     7     8    1
    13     8     9   am
    14     9    10    2
    15     9    13    1
    16    13    14   ar
    17    14    15   ar
    18    15    16   ar
    19    16    17    1
    20    16    18   ar
    21    18    19   ar
    22     8    11    1
    23    11    12    1
    24    24    25   ar
    25    25    21   ar
    26     5     1   ar
    27    19    13   ar
    28    11     4    1
@<TRIPOS>MOLECULE
*****
 25 28 0 0 0
SMALL
GASTEIGER

@<TRIPOS>ATOM
      1 C          64.4671   88.9055   14.4463 C.ar    1  UNL1        0.1917
      2 N          64.8465   87.6164   15.1129 N.ar    1  UNL1       -0.1268
      3 N          64.2410   86.4920   14.3260 N.ar    1  UNL1       -0.1316
      4 C          63.4875   87.0862   13.1731 C.ar    1  UNL1        0.1615
      5 N          63.6273   88.5779   13.2474 N.ar    1  UNL1       -0.2940
      6 C          62.9717   89.4450   12.2139 C.3     1  UNL1        0.1302
      7 C          62.1764   88.8206   11.1059 C.3     1  UNL1        0.1186
      8 N          62.0366   87.3289   11.0315 N.am    1  UNL1       -0.2688
      9 C          61.2414   86.7045    9.9236 C.2     1  UNL1        0.2493
     10 O          61.1016   85.2128    9.8492 O.2     1  UNL1       -0.2699
     11 C          62.6923   86.4618   12.0651 C.3     1  UNL1        0.1343
     12 C          62.5525   84.9701   11.9908 C.3     1  UNL1        0.0298
     13 C          60.5858   87.5716    8.8901 C.ar    1  UNL1        0.0536
     14 C          59.8451   86.9453    7.7459 C.ar    1  UNL1        0.0054
     15 C          59.1895   87.8126    6.7124 C.ar    1  UNL1        0.0115
     16 C          59.2747   89.3060    6.8230 C.ar    1  UNL1        0.0577
     17 CL         58.6191   90.1733    5.7895 Cl      1  UNL1       -0.0822
     18 C          60.0154   89.9323    7.9672 C.ar    1  UNL1        0.0115
     19 C          60.6709   89.0652    9.0007 C.ar    1  UNL1        0.0054
     20 C          67.1298   93.4249   15.0515 C.3     1  UNL1        0.0744
     21 C          66.0828   92.3581   15.1772 C.ar    1  UNL1        0.1481
     22 N          64.8406   92.4364   16.0145 N.ar    1  UNL1       -0.1929
     23 S          64.0842   91.1525   15.8426 S.2     1  UNL1        0.0369
     24 C          64.8588   90.2808   14.8991 C.ar    1  UNL1        0.1652
     25 N          66.0940   91.0260   14.4879 N.ar    1  UNL1       -0.2190
@<TRIPOS>BOND
     1    20    21    1
     2    21    22   ar
     3    22    23   ar
     4    23    24   ar
     5    24     1    1
     6     1     2   ar
     7     2     3   ar
     8     3     4   ar
     9     4     5   ar
    10     5     6    1
    11     6     7    1
    12     7     8    1
    13     8     9   am
    14     9    10    2
    15     9    13    1
    16    13    14   ar
    17    14    15   ar
    18    15    16   ar
    19    16    17    1
    20    16    18   ar
    21    18    19   ar
    22     8    11    1
    23    11    12    1
    24    24    25   ar
    25    25    21   ar
    26     5     1   ar
    27    19    13   ar
    28    11     4    1
