@<TRIPOS>MOLECULE
*****
 28 30 0 0 0
SMALL
GASTEIGER

@<TRIPOS>ATOM
      1 C          61.8147   89.4048   11.6544 C.ar    1  UNL1        0.1423
      2 N          62.7047   88.9052   12.7537 N.ar    1  UNL1       -0.1413
      3 N          63.8861   89.8247   12.8475 N.ar    1  UNL1       -0.1255
      4 C          63.7262   90.8926   11.8063 C.ar    1  UNL1        0.1879
      5 S          62.4460   90.6330   11.0689 S.2     1  UNL1       -0.0320
      6 C          60.5206   88.7848   11.2174 C.3     1  UNL1        0.1709
      7 C          59.7947   90.0478   11.5753 C.3     1  UNL1        0.0429
      8 O          59.2265   88.1649   10.7803 O.3     1  UNL1       -0.3745
      9 H          59.3901   87.2613   10.4679 H       1  UNL1        0.2113
     10 C          62.6913   83.9812   11.5237 C.3     1  UNL1        0.0527
     11 C          62.2442   85.3139   11.0002 C.ar    1  UNL1        0.0661
     12 C          62.4826   85.8430    9.6170 C.ar    1  UNL1        0.0513
     13 S          61.8660   87.2075    9.5300 S.2     1  UNL1       -0.0680
     14 C          61.2465   87.5219   10.8594 C.ar    1  UNL1        0.1179
     15 N          61.4802   86.3515   11.7681 N.ar    1  UNL1       -0.2443
     16 N          64.6791   92.0218   11.5478 N.am    1  UNL1       -0.2625
     17 C          65.3874   92.6825   12.6932 C.2     1  UNL1        0.2321
     18 O          65.1428   92.2140   14.0970 O.2     1  UNL1       -0.2744
     19 H          64.8397   92.3292   10.6265 H       1  UNL1        0.1568
     20 C          66.3404   93.8117   12.4347 C.3     1  UNL1        0.1162
     21 C          66.6530   94.2218   11.0261 C.ar    1  UNL1        0.0419
     22 C          67.4276   93.3005   10.1311 C.ar    1  UNL1        0.1388
     23 F          67.8897   91.9690   10.6446 F       1  UNL1       -0.2044
     24 C          67.7401   93.7106    8.7225 C.ar    1  UNL1        0.0295
     25 C          67.2780   95.0421    8.2090 C.ar    1  UNL1        0.0046
     26 C          66.5034   95.9634    9.1040 C.ar    1  UNL1        0.0295
     27 C          66.1909   95.5532   10.5126 C.ar    1  UNL1        0.1388
     28 F          65.4162   96.4745   11.4077 F       1  UNL1       -0.2044
@<TRIPOS>BOND
     1    10    11    1
     2    11    12   ar
     3    12    13   ar
     4    13    14   ar
     5    14     6    1
     6     6     7    1
     7     6     8    1
     8     6     1    1
     9     1     2   ar
    10     2     3   ar
    11     3     4   ar
    12     4    16    1
    13    16    17   am
    14    17    18    2
    15    17    20    1
    16    20    21    1
    17    21    22   ar
    18    22    23    1
    19    22    24   ar
    20    24    25   ar
    21    25    26   ar
    22    26    27   ar
    23    27    28    1
    24     4     5   ar
    25    14    15   ar
    26    15    11   ar
    27     5     1   ar
    28    27    21   ar
    29     8     9    1
    30    16    19    1
@<TRIPOS>MOLECULE
*****
 28 30 0 0 0
SMALL
GASTEIGER

@<TRIPOS>ATOM
      1 C          61.8192   89.4065   11.6659 C.ar    1  UNL1        0.1423
      2 N          62.7136   88.9049   12.7607 N.ar    1  UNL1       -0.1413
      3 N          63.8958   89.8237   12.8510 N.ar    1  UNL1       -0.1255
      4 C          63.7321   90.8931   11.8120 C.ar    1  UNL1        0.1879
      5 S          62.4487   90.6353   11.0796 S.2     1  UNL1       -0.0320
      6 C          60.5230   88.7879   11.2333 C.3     1  UNL1        0.1709
      7 C          59.7990   90.0500   11.5979 C.3     1  UNL1        0.0429
      8 O          59.2267   88.1693   10.8008 O.3     1  UNL1       -0.3745
      9 H          59.3887   87.2664   10.4852 H       1  UNL1        0.2113
     10 C          62.6967   83.9842   11.5178 C.3     1  UNL1        0.0527
     11 C          62.2461   85.3178   10.9995 C.ar    1  UNL1        0.0661
     12 C          62.4760   85.8494    9.6158 C.ar    1  UNL1        0.0513
     13 S          61.8585   87.2140    9.5350 S.2     1  UNL1       -0.0680
     14 C          61.2470   87.5258   10.8687 C.ar    1  UNL1        0.1179
     15 N          61.4865   86.3538   11.7738 N.ar    1  UNL1       -0.2443
     16 N          64.6845   92.0222   11.5513 N.am    1  UNL1       -0.2625
     17 C          65.3886   92.6890   12.6957 C.2     1  UNL1        0.2321
     18 O          65.1402   92.2267   14.1009 O.2     1  UNL1       -0.2744
     19 H          64.8476   92.3256   10.6290 H       1  UNL1        0.1568
     20 C          66.3411   93.8181   12.4349 C.3     1  UNL1        0.1162
     21 C          66.6524   94.2264   11.0255 C.ar    1  UNL1        0.0419
     22 C          66.1891   95.5567   10.5103 C.ar    1  UNL1        0.1388
     23 F          65.4145   96.4789   11.4046 F       1  UNL1       -0.2044
     24 C          66.5004   95.9650    9.1010 C.ar    1  UNL1        0.0295
     25 C          67.2750   95.0428    8.2068 C.ar    1  UNL1        0.0046
     26 C          67.7383   93.7124    8.7219 C.ar    1  UNL1        0.0295
     27 C          67.4270   93.3042   10.1313 C.ar    1  UNL1        0.1388
     28 F          67.8902   91.9737   10.6465 F       1  UNL1       -0.2044
@<TRIPOS>BOND
     1    10    11    1
     2    11    12   ar
     3    12    13   ar
     4    13    14   ar
     5    14     6    1
     6     6     7    1
     7     6     8    1
     8     6     1    1
     9     1     2   ar
    10     2     3   ar
    11     3     4   ar
    12     4    16    1
    13    16    17   am
    14    17    18    2
    15    17    20    1
    16    20    21    1
    17    21    22   ar
    18    22    23    1
    19    22    24   ar
    20    24    25   ar
    21    25    26   ar
    22    26    27   ar
    23    27    28    1
    24     4     5   ar
    25    14    15   ar
    26    15    11   ar
    27     5     1   ar
    28    27    21   ar
    29     8     9    1
    30    16    19    1
@<TRIPOS>MOLECULE
*****
 28 30 0 0 0
SMALL
GASTEIGER

@<TRIPOS>ATOM
      1 C          64.9262   91.5919   13.0296 C.ar    1  UNL1        0.1423
      2 N          64.1068   91.9502   11.8253 N.ar    1  UNL1       -0.1413
      3 N          63.2378   90.7746   11.4895 N.ar    1  UNL1       -0.1255
      4 C          63.5202   89.6897   12.4861 C.ar    1  UNL1        0.1879
      5 S          64.5637   90.1948   13.4380 S.2     1  UNL1       -0.0320
      6 C          65.9317   92.4755   13.7065 C.3     1  UNL1        0.1709
      7 C          65.4305   92.0203   15.0451 C.3     1  UNL1        0.0429
      8 O          66.9372   93.3591   14.3835 O.3     1  UNL1       -0.3745
      9 H          67.4595   93.8271   13.7134 H       1  UNL1        0.2113
     10 C          68.4177   92.5925    9.0495 C.3     1  UNL1        0.0527
     11 C          67.5756   92.9844   10.2275 C.ar    1  UNL1        0.0661
     12 C          66.8329   94.2776   10.3891 C.ar    1  UNL1        0.0513
     13 S          66.1267   94.2443   11.7120 S.2     1  UNL1       -0.0680
     14 C          66.4329   92.9306   12.3680 C.ar    1  UNL1        0.1179
     15 N          67.3284   92.1520   11.4505 N.ar    1  UNL1       -0.2443
     16 N          62.8727   88.3372   12.5243 N.am    1  UNL1       -0.2625
     17 C          62.3360   87.7267   11.2636 C.2     1  UNL1        0.2321
     18 O          62.4467   88.4689    9.9648 O.2     1  UNL1       -0.2744
     19 H          62.8001   87.8501   13.3768 H       1  UNL1        0.1568
     20 C          61.6885   86.3742   11.3018 C.3     1  UNL1        0.1162
     21 C          62.5312   85.1365   11.2113 C.ar    1  UNL1        0.0419
     22 C          63.1123   84.7195    9.8929 C.ar    1  UNL1        0.1388
     23 F          62.8508   85.5401    8.6648 F       1  UNL1       -0.2044
     24 C          63.9548   83.4818    9.8025 C.ar    1  UNL1        0.0295
     25 C          64.2163   82.6612   11.0306 C.ar    1  UNL1        0.0046
     26 C          63.6352   83.0782   12.3491 C.ar    1  UNL1        0.0295
     27 C          62.7926   84.3159   12.4394 C.ar    1  UNL1        0.1388
     28 F          62.2114   84.7330   13.7579 F       1  UNL1       -0.2044
@<TRIPOS>BOND
     1    10    11    1
     2    11    12   ar
     3    12    13   ar
     4    13    14   ar
     5    14     6    1
     6     6     7    1
     7     6     8    1
     8     6     1    1
     9     1     2   ar
    10     2     3   ar
    11     3     4   ar
    12     4    16    1
    13    16    17   am
    14    17    18    2
    15    17    20    1
    16    20    21    1
    17    21    22   ar
    18    22    23    1
    19    22    24   ar
    20    24    25   ar
    21    25    26   ar
    22    26    27   ar
    23    27    28    1
    24     4     5   ar
    25    14    15   ar
    26    15    11   ar
    27     5     1   ar
    28    27    21   ar
    29     8     9    1
    30    16    19    1
@<TRIPOS>MOLECULE
*****
 28 30 0 0 0
SMALL
GASTEIGER

@<TRIPOS>ATOM
      1 C          64.9248   91.5985   13.0561 C.ar    1  UNL1        0.1423
      2 N          64.0818   91.9800   11.8754 N.ar    1  UNL1       -0.1413
      3 N          63.2071   90.8105   11.5333 N.ar    1  UNL1       -0.1255
      4 C          63.5094   89.7063   12.5024 C.ar    1  UNL1        0.1879
      5 S          64.5710   90.1933   13.4436 S.2     1  UNL1       -0.0320
      6 C          65.9428   92.4694   13.7308 C.3     1  UNL1        0.1709
      7 C          65.4431   92.0158   15.0704 C.3     1  UNL1        0.0429
      8 O          66.9609   93.3403   14.4055 O.3     1  UNL1       -0.3745
      9 H          67.4850   93.8045   13.7342 H       1  UNL1        0.2113
     10 C          68.4284   92.5835    9.0735 C.3     1  UNL1        0.0527
     11 C          67.5851   92.9754   10.2505 C.ar    1  UNL1        0.0661
     12 C          66.8383   94.2666   10.4091 C.ar    1  UNL1        0.0513
     13 S          66.1322   94.2341   11.7321 S.2     1  UNL1       -0.0680
     14 C          66.4426   92.9230   12.3912 C.ar    1  UNL1        0.1179
     15 N          67.3406   92.1450   11.4755 N.ar    1  UNL1       -0.2443
     16 N          62.8635   88.3527   12.5263 N.am    1  UNL1       -0.2625
     17 C          62.3335   87.7521   11.2580 C.2     1  UNL1        0.2321
     18 O          62.4494   88.5052    9.9659 O.2     1  UNL1       -0.2744
     19 H          62.7875   87.8584   13.3743 H       1  UNL1        0.1568
     20 C          61.6877   86.3985   11.2818 C.3     1  UNL1        0.1162
     21 C          62.5336   85.1623   11.2020 C.ar    1  UNL1        0.0419
     22 C          62.7948   84.3513   12.4365 C.ar    1  UNL1        0.1388
     23 F          62.2101   84.7765   13.7508 F       1  UNL1       -0.2044
     24 C          63.6407   83.1152   12.3567 C.ar    1  UNL1        0.0295
     25 C          64.2254   82.6901   11.0424 C.ar    1  UNL1        0.0046
     26 C          63.9642   83.5011    9.8079 C.ar    1  UNL1        0.0295
     27 C          63.1183   84.7372    9.8877 C.ar    1  UNL1        0.1388
     28 F          62.8570   85.5482    8.6532 F       1  UNL1       -0.2044
@<TRIPOS>BOND
     1    10    11    1
     2    11    12   ar
     3    12    13   ar
     4    13    14   ar
     5    14     6    1
     6     6     7    1
     7     6     8    1
     8     6     1    1
     9     1     2   ar
    10     2     3   ar
    11     3     4   ar
    12     4    16    1
    13    16    17   am
    14    17    18    2
    15    17    20    1
    16    20    21    1
    17    21    22   ar
    18    22    23    1
    19    22    24   ar
    20    24    25   ar
    21    25    26   ar
    22    26    27   ar
    23    27    28    1
    24     4     5   ar
    25    14    15   ar
    26    15    11   ar
    27     5     1   ar
    28    27    21   ar
    29     8     9    1
    30    16    19    1
@<TRIPOS>MOLECULE
*****
 28 30 0 0 0
SMALL
GASTEIGER

@<TRIPOS>ATOM
      1 C          66.0821   91.7664   14.6856 C.ar    1  UNL1        0.1423
      2 N          65.2111   92.3260   15.7711 N.ar    1  UNL1       -0.1413
      3 N          63.8327   91.7607   15.5969 N.ar    1  UNL1       -0.1255
      4 C          63.8518   90.8517   14.4039 C.ar    1  UNL1        0.1879
      5 S          65.2420   90.8552   13.8406 S.2     1  UNL1       -0.0320
      6 C          67.5377   92.0654   14.4811 C.3     1  UNL1        0.1709
      7 C          67.8080   91.7330   15.9186 C.3     1  UNL1        0.0429
      8 O          68.9933   92.3645   14.2765 O.3     1  UNL1       -0.3745
      9 H          69.1423   92.6316   13.3560 H       1  UNL1        0.2113
     10 C          67.9146   92.2744    9.2184 C.3     1  UNL1        0.0527
     11 C          67.4406   92.4938   10.6246 C.ar    1  UNL1        0.0661
     12 C          66.2623   93.3247   11.0383 C.ar    1  UNL1        0.0513
     13 S          66.1553   93.2653   12.5332 S.2     1  UNL1       -0.0680
     14 C          67.2674   92.3978   13.0435 C.ar    1  UNL1        0.1179
     15 N          68.0618   91.9210   11.8639 N.ar    1  UNL1       -0.2443
     16 N          62.6854   90.0755   13.8681 N.am    1  UNL1       -0.2625
     17 C          62.3350   90.1578   12.4118 C.2     1  UNL1        0.2321
     18 O          63.1510   91.0164   11.4915 O.2     1  UNL1       -0.2744
     19 H          62.1499   89.5120   14.4721 H       1  UNL1        0.1568
     20 C          61.1687   89.3816   11.8760 C.3     1  UNL1        0.1162
     21 C          61.3892   88.3070   10.8529 C.ar    1  UNL1        0.0419
     22 C          62.3239   87.1715   11.1475 C.ar    1  UNL1        0.1388
     23 F          63.0380   87.1104   12.4651 F       1  UNL1       -0.2044
     24 C          62.5444   86.0970   10.1243 C.ar    1  UNL1        0.0295
     25 C          61.8303   86.1581    8.8067 C.ar    1  UNL1        0.0046
     26 C          60.8956   87.2937    8.5121 C.ar    1  UNL1        0.0295
     27 C          60.6751   88.3682    9.5352 C.ar    1  UNL1        0.1388
     28 F          59.7404   89.5038    9.2407 F       1  UNL1       -0.2044
@<TRIPOS>BOND
     1    10    11    1
     2    11    12   ar
     3    12    13   ar
     4    13    14   ar
     5    14     6    1
     6     6     7    1
     7     6     8    1
     8     6     1    1
     9     1     2   ar
    10     2     3   ar
    11     3     4   ar
    12     4    16    1
    13    16    17   am
    14    17    18    2
    15    17    20    1
    16    20    21    1
    17    21    22   ar
    18    22    23    1
    19    22    24   ar
    20    24    25   ar
    21    25    26   ar
    22    26    27   ar
    23    27    28    1
    24     4     5   ar
    25    14    15   ar
    26    15    11   ar
    27     5     1   ar
    28    27    21   ar
    29     8     9    1
    30    16    19    1
@<TRIPOS>MOLECULE
*****
 28 30 0 0 0
SMALL
GASTEIGER

@<TRIPOS>ATOM
      1 C          60.5192   87.9948    9.8915 C.ar    1  UNL1        0.1423
      2 N          59.6409   88.1440   11.0983 N.ar    1  UNL1       -0.1413
      3 N          60.2081   89.2394   11.9517 N.ar    1  UNL1       -0.1255
      4 C          61.4369   89.7672   11.2723 C.ar    1  UNL1        0.1879
      5 S          61.6292   88.9980    9.9991 S.2     1  UNL1       -0.0320
      6 C          60.3221   87.0144    8.7734 C.3     1  UNL1        0.1709
      7 C          59.2899   87.9165    8.1644 C.3     1  UNL1        0.0429
      8 O          60.1250   86.0341    7.6553 O.3     1  UNL1       -0.3745
      9 H          60.7119   85.2728    7.7855 H       1  UNL1        0.2113
     10 C          63.0055   84.0791   12.2468 C.3     1  UNL1        0.0527
     11 C          62.5877   84.7632   10.9789 C.ar    1  UNL1        0.0661
     12 C          63.2979   84.6854    9.6599 C.ar    1  UNL1        0.0513
     13 S          62.5356   85.5192    8.6732 S.2     1  UNL1       -0.0680
     14 C          61.3544   86.1124    9.3823 C.ar    1  UNL1        0.1179
     15 N          61.3866   85.6451   10.8073 N.ar    1  UNL1       -0.2443
     16 N          62.3186   90.8705   11.7775 N.am    1  UNL1       -0.2625
     17 C          63.4524   90.5578   12.7086 C.2     1  UNL1        0.2321
     18 O          63.7044   89.1418   13.1345 O.2     1  UNL1       -0.2744
     19 H          62.1532   91.7999   11.4980 H       1  UNL1        0.1568
     20 C          64.3341   91.6611   13.2138 C.3     1  UNL1        0.1162
     21 C          65.6902   91.8740   12.6090 C.ar    1  UNL1        0.0419
     22 C          65.8133   92.3386   11.1882 C.ar    1  UNL1        0.1388
     23 F          64.5802   92.5904   10.3720 F       1  UNL1       -0.2044
     24 C          67.1693   92.5514   10.5835 C.ar    1  UNL1        0.0295
     25 C          68.4024   92.2997   11.3997 C.ar    1  UNL1        0.0046
     26 C          68.2794   91.8351   12.8206 C.ar    1  UNL1        0.0295
     27 C          66.9233   91.6222   13.4252 C.ar    1  UNL1        0.1388
     28 F          66.8002   91.1576   14.8462 F       1  UNL1       -0.2044
@<TRIPOS>BOND
     1    10    11    1
     2    11    12   ar
     3    12    13   ar
     4    13    14   ar
     5    14     6    1
     6     6     7    1
     7     6     8    1
     8     6     1    1
     9     1     2   ar
    10     2     3   ar
    11     3     4   ar
    12     4    16    1
    13    16    17   am
    14    17    18    2
    15    17    20    1
    16    20    21    1
    17    21    22   ar
    18    22    23    1
    19    22    24   ar
    20    24    25   ar
    21    25    26   ar
    22    26    27   ar
    23    27    28    1
    24     4     5   ar
    25    14    15   ar
    26    15    11   ar
    27     5     1   ar
    28    27    21   ar
    29     8     9    1
    30    16    19    1
@<TRIPOS>MOLECULE
*****
 28 30 0 0 0
SMALL
GASTEIGER

@<TRIPOS>ATOM
      1 C          63.4534   84.8601   14.4076 C.ar    1  UNL1        0.1423
      2 N          62.7902   85.1896   15.7121 N.ar    1  UNL1       -0.1413
      3 N          63.1629   86.5953   16.0794 N.ar    1  UNL1       -0.1255
      4 C          64.0564   87.1346   15.0020 C.ar    1  UNL1        0.1879
      5 S          64.2360   86.0621   13.9688 S.2     1  UNL1       -0.0320
      6 C          63.3518   83.5572   13.6712 C.3     1  UNL1        0.1709
      7 C          63.8135   82.8278   14.8980 C.3     1  UNL1        0.0429
      8 O          63.2503   82.2543   12.9349 O.3     1  UNL1       -0.3745
      9 H          62.9469   82.4181   12.0282 H       1  UNL1        0.2113
     10 C          60.8455   86.9417   10.4862 C.3     1  UNL1        0.0527
     11 C          61.7382   85.8421   10.9805 C.ar    1  UNL1        0.0661
     12 C          62.6215   84.9754   10.1328 C.ar    1  UNL1        0.0513
     13 S          63.3335   84.0140   11.0376 S.2     1  UNL1       -0.0680
     14 C          62.8902   84.2865   12.4444 C.ar    1  UNL1        0.1179
     15 N          61.9043   85.4164   12.4091 N.ar    1  UNL1       -0.2443
     16 N          64.6638   88.5056   14.9644 N.am    1  UNL1       -0.2625
     17 C          63.8301   89.7049   15.3062 C.2     1  UNL1        0.2321
     18 O          62.3891   89.5331   15.6856 O.2     1  UNL1       -0.2744
     19 H          65.6096   88.6183   14.7154 H       1  UNL1        0.1568
     20 C          64.4375   91.0759   15.2686 C.3     1  UNL1        0.1162
     21 C          65.2638   91.4981   14.0900 C.ar    1  UNL1        0.0419
     22 C          66.7391   91.7176   14.2484 C.ar    1  UNL1        0.1388
     23 F          67.3882   91.5150   15.5855 F       1  UNL1       -0.2044
     24 C          67.5654   92.1398   13.0699 C.ar    1  UNL1        0.0295
     25 C          66.9163   92.3424   11.7329 C.ar    1  UNL1        0.0046
     26 C          65.4409   92.1229   11.5744 C.ar    1  UNL1        0.0295
     27 C          64.6147   91.7007   12.7530 C.ar    1  UNL1        0.1388
     28 F          63.1393   91.4811   12.5946 F       1  UNL1       -0.2044
@<TRIPOS>BOND
     1    10    11    1
     2    11    12   ar
     3    12    13   ar
     4    13    14   ar
     5    14     6    1
     6     6     7    1
     7     6     8    1
     8     6     1    1
     9     1     2   ar
    10     2     3   ar
    11     3     4   ar
    12     4    16    1
    13    16    17   am
    14    17    18    2
    15    17    20    1
    16    20    21    1
    17    21    22   ar
    18    22    23    1
    19    22    24   ar
    20    24    25   ar
    21    25    26   ar
    22    26    27   ar
    23    27    28    1
    24     4     5   ar
    25    14    15   ar
    26    15    11   ar
    27     5     1   ar
    28    27    21   ar
    29     8     9    1
    30    16    19    1
@<TRIPOS>MOLECULE
*****
 28 30 0 0 0
SMALL
GASTEIGER

@<TRIPOS>ATOM
      1 C          63.9812   90.6214   14.0916 C.ar    1  UNL1        0.1423
      2 N          63.0112   91.1831   13.0948 N.ar    1  UNL1       -0.1413
      3 N          62.5438   90.0589   12.2187 N.ar    1  UNL1       -0.1255
      4 C          63.2250   88.8024   12.6739 C.ar    1  UNL1        0.1879
      5 S          64.1133   89.1501   13.8315 S.2     1  UNL1       -0.0320
      6 C          64.6940   91.3952   15.1609 C.3     1  UNL1        0.1709
      7 C          63.7050   90.9037   16.1759 C.3     1  UNL1        0.0429
      8 O          65.4068   92.1690   16.2301 O.3     1  UNL1       -0.3745
      9 H          66.1634   92.6355   15.8417 H       1  UNL1        0.2113
     10 C          66.7938   93.7362   10.9191 C.3     1  UNL1        0.0527
     11 C          66.6481   92.9627   12.1961 C.ar    1  UNL1        0.0661
     12 C          67.7617   92.3235   12.9716 C.ar    1  UNL1        0.0513
     13 S          67.1652   91.6585   14.1766 S.2     1  UNL1       -0.0680
     14 C          65.6830   91.8868   14.1458 C.ar    1  UNL1        0.1179
     15 N          65.3635   92.6928   12.9219 N.ar    1  UNL1       -0.2443
     16 N          63.0487   87.4379   12.0766 N.am    1  UNL1       -0.2625
     17 C          61.7306   87.0460   11.4773 C.2     1  UNL1        0.2321
     18 O          60.5888   88.0188   11.4754 O.2     1  UNL1       -0.2744
     19 H          63.7981   86.7994   12.0778 H       1  UNL1        0.1568
     20 C          61.5543   85.6815   10.8799 C.3     1  UNL1        0.1162
     21 C          62.5761   84.6133   11.1351 C.ar    1  UNL1        0.0419
     22 C          63.4009   84.0784   10.0022 C.ar    1  UNL1        0.1388
     23 F          63.2040   84.6116    8.6140 F       1  UNL1       -0.2044
     24 C          64.4226   83.0103   10.2574 C.ar    1  UNL1        0.0295
     25 C          64.6196   82.4771   11.6455 C.ar    1  UNL1        0.0046
     26 C          63.7947   83.0120   12.7784 C.ar    1  UNL1        0.0295
     27 C          62.7730   84.0801   12.5232 C.ar    1  UNL1        0.1388
     28 F          61.9482   84.6151   13.6562 F       1  UNL1       -0.2044
@<TRIPOS>BOND
     1    10    11    1
     2    11    12   ar
     3    12    13   ar
     4    13    14   ar
     5    14     6    1
     6     6     7    1
     7     6     8    1
     8     6     1    1
     9     1     2   ar
    10     2     3   ar
    11     3     4   ar
    12     4    16    1
    13    16    17   am
    14    17    18    2
    15    17    20    1
    16    20    21    1
    17    21    22   ar
    18    22    23    1
    19    22    24   ar
    20    24    25   ar
    21    25    26   ar
    22    26    27   ar
    23    27    28    1
    24     4     5   ar
    25    14    15   ar
    26    15    11   ar
    27     5     1   ar
    28    27    21   ar
    29     8     9    1
    30    16    19    1
@<TRIPOS>MOLECULE
*****
 28 30 0 0 0
SMALL
GASTEIGER

@<TRIPOS>ATOM
      1 C          63.6067   85.3048   14.7331 C.ar    1  UNL1        0.1423
      2 N          62.9610   85.8796   15.9590 N.ar    1  UNL1       -0.1413
      3 N          63.3364   87.3294   16.0441 N.ar    1  UNL1       -0.1255
      4 C          64.2140   87.6506   14.8708 C.ar    1  UNL1        0.1879
      5 S          64.3810   86.3994   14.0605 S.2     1  UNL1       -0.0320
      6 C          63.4971   83.8848   14.2624 C.3     1  UNL1        0.1709
      7 C          63.9563   83.4037   15.6069 C.3     1  UNL1        0.0429
      8 O          63.3876   82.4648   13.7917 O.3     1  UNL1       -0.3745
      9 H          63.0840   82.4520   12.8705 H       1  UNL1        0.2113
     10 C          61.0037   86.6028   10.4839 C.3     1  UNL1        0.0527
     11 C          61.8918   85.6152   11.1811 C.ar    1  UNL1        0.0661
     12 C          62.7707   84.5972   10.5167 C.ar    1  UNL1        0.0513
     13 S          63.4789   83.8252   11.5901 S.2     1  UNL1       -0.0680
     14 C          63.0379   84.3659   12.9179 C.ar    1  UNL1        0.1179
     15 N          62.0570   85.4722   12.6651 N.ar    1  UNL1       -0.2443
     16 N          64.8185   88.9882   14.5619 N.am    1  UNL1       -0.2625
     17 C          64.0389   89.9999   13.7752 C.2     1  UNL1        0.2321
     18 O          62.6549   89.6740   13.2975 O.2     1  UNL1       -0.2744
     19 H          65.7268   89.2021   14.8755 H       1  UNL1        0.1568
     20 C          64.6433   91.3375   13.4664 C.3     1  UNL1        0.1162
     21 C          65.8235   91.8268   14.2525 C.ar    1  UNL1        0.0419
     22 C          65.6756   92.1370   15.7126 C.ar    1  UNL1        0.1388
     23 F          64.3476   91.9578   16.3867 F       1  UNL1       -0.2044
     24 C          66.8557   92.6262   16.4986 C.ar    1  UNL1        0.0295
     25 C          68.1837   92.8054   15.8246 C.ar    1  UNL1        0.0046
     26 C          68.3316   92.4953   14.3645 C.ar    1  UNL1        0.0295
     27 C          67.1515   92.0060   13.5785 C.ar    1  UNL1        0.1388
     28 F          67.2993   91.6959   12.1183 F       1  UNL1       -0.2044
@<TRIPOS>BOND
     1    10    11    1
     2    11    12   ar
     3    12    13   ar
     4    13    14   ar
     5    14     6    1
     6     6     7    1
     7     6     8    1
     8     6     1    1
     9     1     2   ar
    10     2     3   ar
    11     3     4   ar
    12     4    16    1
    13    16    17   am
    14    17    18    2
    15    17    20    1
    16    20    21    1
    17    21    22   ar
    18    22    23    1
    19    22    24   ar
    20    24    25   ar
    21    25    26   ar
    22    26    27   ar
    23    27    28    1
    24     4     5   ar
    25    14    15   ar
    26    15    11   ar
    27     5     1   ar
    28    27    21   ar
    29     8     9    1
    30    16    19    1
