@<TRIPOS>MOLECULE
*****
 32 35 0 0 0
SMALL
GASTEIGER

@<TRIPOS>ATOM
      1 C          64.9907   93.5605    0.4080 C.3     1  UNL1        0.1351
      2 N          63.5093   93.7491    0.5492 N.ar    1  UNL1       -0.2791
      3 C          62.7770   94.6635   -0.3876 C.ar    1  UNL1        0.3341
      4 O          63.5262   95.3894   -1.4656 O.2     1  UNL1       -0.2462
      5 N          61.2957   94.8522   -0.2464 N.ar    1  UNL1       -0.2445
      6 C          60.5465   94.1264    0.8315 C.ar    1  UNL1        0.2659
      7 O          59.0651   94.3151    0.9727 O.2     1  UNL1       -0.2668
      8 C          61.2788   93.2119    1.7684 C.ar    1  UNL1        0.0728
      9 C          60.5296   92.4862    2.8463 C.ar    1  UNL1        0.0144
     10 C          61.2619   91.5718    3.7831 C.ar    1  UNL1        0.0419
     11 C          62.7432   91.3831    3.6419 C.ar    1  UNL1        0.0097
     12 C          63.4924   92.1089    2.5640 C.ar    1  UNL1        0.0181
     13 C          62.7601   93.0233    1.6272 C.ar    1  UNL1        0.0685
     14 C          60.5127   90.8459    4.8611 C.1     1  UNL1       -0.0640
     15 C          59.7636   90.1201    5.9390 C.1     1  UNL1       -0.0816
     16 C          59.0144   89.3943    7.0170 C.3     1  UNL1        0.1026
     17 C          59.7552   88.5282    7.9923 C.ar    1  UNL1       -0.0092
     18 C          59.7673   87.0388    7.8140 C.ar    1  UNL1       -0.0033
     19 C          60.5081   86.1727    8.7892 C.ar    1  UNL1       -0.0003
     20 C          61.2368   86.7960    9.9427 C.ar    1  UNL1       -0.0000
     21 C          61.2248   88.2853   10.1210 C.ar    1  UNL1       -0.0003
     22 C          60.4840   89.1514    9.1457 C.ar    1  UNL1       -0.0033
     23 C          60.5634   95.7667   -1.1833 C.3     1  UNL1        0.1403
     24 C          59.4682   95.2272   -2.0547 C.ar    1  UNL1        0.0006
     25 C          59.7094   94.0077   -2.8940 C.ar    1  UNL1       -0.0024
     26 C          58.6142   93.4682   -3.7654 C.ar    1  UNL1        0.0009
     27 C          57.2776   94.1483   -3.7975 C.ar    1  UNL1        0.0140
     28 C          57.0363   95.3679   -2.9582 C.ar    1  UNL1        0.0009
     29 C          58.1316   95.9074   -2.0867 C.ar    1  UNL1       -0.0024
     30 C          56.1823   93.6089   -4.6689 C.2     1  UNL1        0.0729
     31 O          55.2585   94.5512   -5.3820 O.co2   1  UNL1       -0.5446
     32 O          56.0109   92.1271   -4.8271 O.co2   1  UNL1       -0.5446
@<TRIPOS>UNITY_ATOM_ATTR
31 1
charge -1
@<TRIPOS>BOND
     1     1     2    1
     2     2     3   ar
     3     3     4    2
     4     3     5   ar
     5     5    23    1
     6    23    24    1
     7    24    25   ar
     8    25    26   ar
     9    26    27   ar
    10    27    30    1
    11    30    31   ar
    12    30    32   ar
    13    27    28   ar
    14    28    29   ar
    15     5     6   ar
    16     6     7    2
    17     6     8   ar
    18     8     9   ar
    19     9    10   ar
    20    10    14    1
    21    14    15    3
    22    15    16    1
    23    16    17    1
    24    17    18   ar
    25    18    19   ar
    26    19    20   ar
    27    20    21   ar
    28    21    22   ar
    29    10    11   ar
    30    11    12   ar
    31    12    13   ar
    32    13     2   ar
    33    29    24   ar
    34    13     8   ar
    35    22    17   ar
@<TRIPOS>MOLECULE
*****
 32 35 0 0 0
SMALL
GASTEIGER

@<TRIPOS>ATOM
      1 C          64.6407   88.9822   14.5479 C.3     1  UNL1        0.1351
      2 N          64.0415   87.8248   13.8054 N.ar    1  UNL1       -0.2791
      3 C          64.3015   86.4217   14.2675 C.ar    1  UNL1        0.3341
      4 O          65.1608   86.1760   15.4723 O.2     1  UNL1       -0.2462
      5 N          63.7022   85.2643   13.5250 N.ar    1  UNL1       -0.2445
      6 C          62.8430   85.5100   12.3204 C.ar    1  UNL1        0.2659
      7 O          62.2437   84.3526   11.5779 O.2     1  UNL1       -0.2668
      8 C          62.5829   86.9131   11.8581 C.ar    1  UNL1        0.0728
      9 C          61.7237   87.1588   10.6535 C.ar    1  UNL1        0.0144
     10 C          61.4637   88.5619   10.1913 C.ar    1  UNL1        0.0419
     11 C          62.0629   89.7193   10.9338 C.ar    1  UNL1        0.0097
     12 C          62.9222   89.4737   12.1384 C.ar    1  UNL1        0.0181
     13 C          63.1822   88.0706   12.6006 C.ar    1  UNL1        0.0685
     14 C          60.6044   88.8077    8.9865 C.1     1  UNL1       -0.0640
     15 C          59.7451   89.0535    7.7819 C.1     1  UNL1       -0.0816
     16 C          58.8859   89.2992    6.5771 C.3     1  UNL1        0.1026
     17 C          59.2306   90.4040    5.6228 C.ar    1  UNL1       -0.0092
     18 C          60.6586   90.6328    5.2247 C.ar    1  UNL1       -0.0033
     19 C          61.0033   91.7375    4.2704 C.ar    1  UNL1       -0.0003
     20 C          59.9199   92.6135    3.7142 C.ar    1  UNL1       -0.0000
     21 C          58.4920   92.3846    4.1124 C.ar    1  UNL1       -0.0003
     22 C          58.1473   91.2799    5.0667 C.ar    1  UNL1       -0.0033
     23 C          63.9623   83.8611   13.9873 C.3     1  UNL1        0.1403
     24 C          63.6651   82.7050   13.0790 C.ar    1  UNL1        0.0006
     25 C          62.7801   81.5893   13.5501 C.ar    1  UNL1       -0.0024
     26 C          62.4829   80.4332   12.6418 C.ar    1  UNL1        0.0009
     27 C          63.0707   80.3928   11.2623 C.ar    1  UNL1        0.0140
     28 C          63.9556   81.5086   10.7911 C.ar    1  UNL1        0.0009
     29 C          64.2528   82.6647   11.6995 C.ar    1  UNL1       -0.0024
     30 C          62.7735   79.2367   10.3539 C.2     1  UNL1        0.0729
     31 O          62.8701   77.8322   10.8715 O.co2   1  UNL1       -0.5446
     32 O          62.3797   79.4852    8.9280 O.co2   1  UNL1       -0.5446
@<TRIPOS>UNITY_ATOM_ATTR
31 1
charge -1
@<TRIPOS>BOND
     1     1     2    1
     2     2     3   ar
     3     3     4    2
     4     3     5   ar
     5     5    23    1
     6    23    24    1
     7    24    25   ar
     8    25    26   ar
     9    26    27   ar
    10    27    30    1
    11    30    31   ar
    12    30    32   ar
    13    27    28   ar
    14    28    29   ar
    15     5     6   ar
    16     6     7    2
    17     6     8   ar
    18     8     9   ar
    19     9    10   ar
    20    10    14    1
    21    14    15    3
    22    15    16    1
    23    16    17    1
    24    17    18   ar
    25    18    19   ar
    26    19    20   ar
    27    20    21   ar
    28    21    22   ar
    29    10    11   ar
    30    11    12   ar
    31    12    13   ar
    32    13     2   ar
    33    29    24   ar
    34    13     8   ar
    35    22    17   ar
@<TRIPOS>MOLECULE
*****
 32 35 0 0 0
SMALL
GASTEIGER

@<TRIPOS>ATOM
      1 C          63.5702   85.6413   12.9112 C.3     1  UNL1        0.1351
      2 N          63.2247   87.0993   12.8418 N.ar    1  UNL1       -0.2791
      3 C          63.5871   88.0107   13.9767 C.ar    1  UNL1        0.3341
      4 O          64.2949   87.4640   15.1811 O.2     1  UNL1       -0.2462
      5 N          63.2416   89.4687   13.9074 N.ar    1  UNL1       -0.2445
      6 C          62.5339   90.0154   12.7032 C.ar    1  UNL1        0.2659
      7 O          62.1885   91.4734   12.6339 O.2     1  UNL1       -0.2668
      8 C          62.1715   89.1040   11.5682 C.ar    1  UNL1        0.0728
      9 C          61.4638   89.6506   10.3640 C.ar    1  UNL1        0.0144
     10 C          61.1015   88.7392    9.2291 C.ar    1  UNL1        0.0419
     11 C          61.4469   87.2812    9.2984 C.ar    1  UNL1        0.0097
     12 C          62.1546   86.7345   10.5026 C.ar    1  UNL1        0.0181
     13 C          62.5170   87.6459   11.6375 C.ar    1  UNL1        0.0685
     14 C          60.3937   89.2859    8.0248 C.1     1  UNL1       -0.0640
     15 C          59.6860   89.8325    6.8205 C.1     1  UNL1       -0.0816
     16 C          58.9782   90.3791    5.6162 C.3     1  UNL1        0.1026
     17 C          59.7306   91.2034    4.6139 C.ar    1  UNL1       -0.0092
     18 C          58.9978   92.1860    3.7493 C.ar    1  UNL1       -0.0033
     19 C          59.7502   93.0102    2.7471 C.ar    1  UNL1       -0.0003
     20 C          61.2355   92.8518    2.6095 C.ar    1  UNL1       -0.0000
     21 C          61.9683   91.8692    3.4740 C.ar    1  UNL1       -0.0003
     22 C          61.2158   91.0450    4.4763 C.ar    1  UNL1       -0.0033
     23 C          63.6040   90.3801   15.0424 C.3     1  UNL1        0.1403
     24 C          64.9391   91.0636   15.0585 C.ar    1  UNL1        0.0006
     25 C          65.9219   90.8160   13.9527 C.ar    1  UNL1       -0.0024
     26 C          67.2570   91.4995   13.9689 C.ar    1  UNL1        0.0009
     27 C          67.6093   92.4307   15.0908 C.ar    1  UNL1        0.0140
     28 C          66.6265   92.6783   16.1967 C.ar    1  UNL1        0.0009
     29 C          65.2914   91.9948   16.1805 C.ar    1  UNL1       -0.0024
     30 C          68.9444   93.1142   15.1070 C.2     1  UNL1        0.0729
     31 O          69.1729   94.2925   16.0066 O.co2   1  UNL1       -0.5446
     32 O          70.0511   92.6194   14.2235 O.co2   1  UNL1       -0.5446
@<TRIPOS>UNITY_ATOM_ATTR
31 1
charge -1
@<TRIPOS>BOND
     1     1     2    1
     2     2     3   ar
     3     3     4    2
     4     3     5   ar
     5     5    23    1
     6    23    24    1
     7    24    25   ar
     8    25    26   ar
     9    26    27   ar
    10    27    30    1
    11    30    31   ar
    12    30    32   ar
    13    27    28   ar
    14    28    29   ar
    15     5     6   ar
    16     6     7    2
    17     6     8   ar
    18     8     9   ar
    19     9    10   ar
    20    10    14    1
    21    14    15    3
    22    15    16    1
    23    16    17    1
    24    17    18   ar
    25    18    19   ar
    26    19    20   ar
    27    20    21   ar
    28    21    22   ar
    29    10    11   ar
    30    11    12   ar
    31    12    13   ar
    32    13     2   ar
    33    29    24   ar
    34    13     8   ar
    35    22    17   ar
@<TRIPOS>MOLECULE
*****
 32 35 0 0 0
SMALL
GASTEIGER

@<TRIPOS>ATOM
      1 C          63.6691   82.8721   10.5814 C.3     1  UNL1        0.1351
      2 N          63.3471   84.2208   11.1537 N.ar    1  UNL1       -0.2791
      3 C          63.7879   84.5701   12.5443 C.ar    1  UNL1        0.3341
      4 O          64.5507   83.5707   13.3626 O.2     1  UNL1       -0.2462
      5 N          63.4660   85.9187   13.1166 N.ar    1  UNL1       -0.2445
      6 C          62.7032   86.9180   12.2984 C.ar    1  UNL1        0.2659
      7 O          62.3813   88.2666   12.8707 O.2     1  UNL1       -0.2668
      8 C          62.2624   86.5687   10.9078 C.ar    1  UNL1        0.0728
      9 C          61.4996   87.5681   10.0896 C.ar    1  UNL1        0.0144
     10 C          61.0588   87.2188    8.6990 C.ar    1  UNL1        0.0419
     11 C          61.3808   85.8701    8.1267 C.ar    1  UNL1        0.0097
     12 C          62.1435   84.8708    8.9449 C.ar    1  UNL1        0.0181
     13 C          62.5843   85.2201   10.3354 C.ar    1  UNL1        0.0685
     14 C          60.2960   88.2181    7.8807 C.1     1  UNL1       -0.0640
     15 C          59.5333   89.2174    7.0625 C.1     1  UNL1       -0.0816
     16 C          58.7705   90.2168    6.2442 C.3     1  UNL1        0.1026
     17 C          59.4687   90.9944    5.1682 C.ar    1  UNL1       -0.0092
     18 C          60.9388   90.8036    4.9387 C.ar    1  UNL1       -0.0033
     19 C          61.6370   91.5812    3.8627 C.ar    1  UNL1       -0.0003
     20 C          60.8651   92.5495    3.0160 C.ar    1  UNL1       -0.0000
     21 C          59.3951   92.7402    3.2455 C.ar    1  UNL1       -0.0003
     22 C          58.6969   91.9626    4.3216 C.ar    1  UNL1       -0.0033
     23 C          63.9068   86.2680   14.5072 C.3     1  UNL1        0.1403
     24 C          63.9923   87.7051   14.9282 C.ar    1  UNL1        0.0006
     25 C          63.2573   88.1741   16.1488 C.ar    1  UNL1       -0.0024
     26 C          63.3428   89.6112   16.5698 C.ar    1  UNL1        0.0009
     27 C          64.1633   90.5795   15.7701 C.ar    1  UNL1        0.0140
     28 C          64.8982   90.1105   14.5495 C.ar    1  UNL1        0.0009
     29 C          64.8127   88.6733   14.1285 C.ar    1  UNL1       -0.0024
     30 C          64.2487   92.0166   16.1910 C.2     1  UNL1        0.0729
     31 O          63.0998   92.6563   16.9126 O.co2   1  UNL1       -0.5446
     32 O          65.4831   92.8141   15.8904 O.co2   1  UNL1       -0.5446
@<TRIPOS>UNITY_ATOM_ATTR
31 1
charge -1
@<TRIPOS>BOND
     1     1     2    1
     2     2     3   ar
     3     3     4    2
     4     3     5   ar
     5     5    23    1
     6    23    24    1
     7    24    25   ar
     8    25    26   ar
     9    26    27   ar
    10    27    30    1
    11    30    31   ar
    12    30    32   ar
    13    27    28   ar
    14    28    29   ar
    15     5     6   ar
    16     6     7    2
    17     6     8   ar
    18     8     9   ar
    19     9    10   ar
    20    10    14    1
    21    14    15    3
    22    15    16    1
    23    16    17    1
    24    17    18   ar
    25    18    19   ar
    26    19    20   ar
    27    20    21   ar
    28    21    22   ar
    29    10    11   ar
    30    11    12   ar
    31    12    13   ar
    32    13     2   ar
    33    29    24   ar
    34    13     8   ar
    35    22    17   ar
@<TRIPOS>MOLECULE
*****
 32 35 0 0 0
SMALL
GASTEIGER

@<TRIPOS>ATOM
      1 C          63.9510   90.3664   14.8415 C.3     1  UNL1        0.1351
      2 N          63.7373   89.1217   14.0321 N.ar    1  UNL1       -0.2791
      3 C          64.2957   87.8131   14.5070 C.ar    1  UNL1        0.3341
      4 O          65.0680   87.7491   15.7914 O.2     1  UNL1       -0.2462
      5 N          64.0820   86.5685   13.6976 N.ar    1  UNL1       -0.2445
      6 C          63.3098   86.6324   12.4133 C.ar    1  UNL1        0.2659
      7 O          63.0960   85.3878   11.6039 O.2     1  UNL1       -0.2668
      8 C          62.7513   87.9411   11.9383 C.ar    1  UNL1        0.0728
      9 C          61.9791   88.0051   10.6540 C.ar    1  UNL1        0.0144
     10 C          61.4206   89.3137   10.1791 C.ar    1  UNL1        0.0419
     11 C          61.6343   90.5584   10.9885 C.ar    1  UNL1        0.0097
     12 C          62.4066   90.4944   12.2728 C.ar    1  UNL1        0.0181
     13 C          62.9650   89.1858   12.7477 C.ar    1  UNL1        0.0685
     14 C          60.6483   89.3777    8.8947 C.1     1  UNL1       -0.0640
     15 C          59.8761   89.4417    7.6103 C.1     1  UNL1       -0.0816
     16 C          59.1039   89.5057    6.3259 C.3     1  UNL1        0.1026
     17 C          59.3866   90.5951    5.3344 C.ar    1  UNL1       -0.0092
     18 C          60.7894   90.8301    4.8580 C.ar    1  UNL1       -0.0033
     19 C          61.0722   91.9195    3.8664 C.ar    1  UNL1       -0.0003
     20 C          59.9521   92.7739    3.3512 C.ar    1  UNL1       -0.0000
     21 C          58.5493   92.5389    3.8276 C.ar    1  UNL1       -0.0003
     22 C          58.2666   91.4495    4.8192 C.ar    1  UNL1       -0.0033
     23 C          64.6405   85.2598   14.1726 C.3     1  UNL1        0.1403
     24 C          63.8003   84.0188   14.1101 C.ar    1  UNL1        0.0006
     25 C          62.5592   83.9105   14.9455 C.ar    1  UNL1       -0.0024
     26 C          61.7189   82.6696   14.8830 C.ar    1  UNL1        0.0009
     27 C          62.1197   81.5368   13.9850 C.ar    1  UNL1        0.0140
     28 C          63.3608   81.6452   13.1495 C.ar    1  UNL1        0.0009
     29 C          64.2011   82.8862   13.2121 C.ar    1  UNL1       -0.0024
     30 C          61.2795   80.2959   13.9225 C.2     1  UNL1        0.0729
     31 O          61.8672   79.0177   13.4021 O.co2   1  UNL1       -0.5446
     32 O          59.8516   80.3331   14.3804 O.co2   1  UNL1       -0.5446
@<TRIPOS>UNITY_ATOM_ATTR
31 1
charge -1
@<TRIPOS>BOND
     1     1     2    1
     2     2     3   ar
     3     3     4    2
     4     3     5   ar
     5     5    23    1
     6    23    24    1
     7    24    25   ar
     8    25    26   ar
     9    26    27   ar
    10    27    30    1
    11    30    31   ar
    12    30    32   ar
    13    27    28   ar
    14    28    29   ar
    15     5     6   ar
    16     6     7    2
    17     6     8   ar
    18     8     9   ar
    19     9    10   ar
    20    10    14    1
    21    14    15    3
    22    15    16    1
    23    16    17    1
    24    17    18   ar
    25    18    19   ar
    26    19    20   ar
    27    20    21   ar
    28    21    22   ar
    29    10    11   ar
    30    11    12   ar
    31    12    13   ar
    32    13     2   ar
    33    29    24   ar
    34    13     8   ar
    35    22    17   ar
@<TRIPOS>MOLECULE
*****
 32 35 0 0 0
SMALL
GASTEIGER

@<TRIPOS>ATOM
      1 C          61.8670   85.2636   10.4557 C.3     1  UNL1        0.1351
      2 N          61.7427   86.7470   10.6407 N.ar    1  UNL1       -0.2791
      3 C          62.1822   87.3818   11.9267 C.ar    1  UNL1        0.3341
      4 O          62.7460   86.5334   13.0277 O.2     1  UNL1       -0.2462
      5 N          62.0579   88.8652   12.1117 N.ar    1  UNL1       -0.2445
      6 C          61.4941   89.7137   11.0107 C.ar    1  UNL1        0.2659
      7 O          61.3698   91.1970   11.1957 O.2     1  UNL1       -0.2668
      8 C          61.0546   89.0788    9.7246 C.ar    1  UNL1        0.0728
      9 C          60.4908   89.9273    8.6237 C.ar    1  UNL1        0.0144
     10 C          60.0513   89.2924    7.3377 C.ar    1  UNL1        0.0419
     11 C          60.1756   87.8091    7.1527 C.ar    1  UNL1        0.0097
     12 C          60.7394   86.9606    8.2537 C.ar    1  UNL1        0.0181
     13 C          61.1789   87.5955    9.5396 C.ar    1  UNL1        0.0685
     14 C          59.4875   90.1409    6.2366 C.1     1  UNL1       -0.0640
     15 C          58.9238   90.9894    5.1356 C.1     1  UNL1       -0.0816
     16 C          58.3599   91.8378    4.0345 C.3     1  UNL1        0.1026
     17 C          59.2655   92.3869    2.9722 C.ar    1  UNL1       -0.0092
     18 C          58.7185   92.7080    1.6129 C.ar    1  UNL1       -0.0033
     19 C          59.6240   93.2570    0.5506 C.ar    1  UNL1       -0.0003
     20 C          61.0766   93.4850    0.8476 C.ar    1  UNL1       -0.0000
     21 C          61.6235   93.1640    2.2069 C.ar    1  UNL1       -0.0003
     22 C          60.7180   92.6149    3.2692 C.ar    1  UNL1       -0.0033
     23 C          62.4974   89.5001   13.3977 C.3     1  UNL1        0.1403
     24 C          63.8167   90.2099   13.4712 C.ar    1  UNL1        0.0006
     25 C          64.7681   89.9104   14.5915 C.ar    1  UNL1       -0.0024
     26 C          66.0875   90.6203   14.6650 C.ar    1  UNL1        0.0009
     27 C          66.4555   91.6296   13.6181 C.ar    1  UNL1        0.0140
     28 C          65.5041   91.9290   12.4978 C.ar    1  UNL1        0.0009
     29 C          64.1847   91.2191   12.4243 C.ar    1  UNL1       -0.0024
     30 C          67.7748   92.3394   13.6916 C.2     1  UNL1        0.0729
     31 O          67.9517   93.4984   14.6272 O.co2   1  UNL1       -0.5446
     32 O          68.9172   91.8903   12.8295 O.co2   1  UNL1       -0.5446
@<TRIPOS>UNITY_ATOM_ATTR
31 1
charge -1
@<TRIPOS>BOND
     1     1     2    1
     2     2     3   ar
     3     3     4    2
     4     3     5   ar
     5     5    23    1
     6    23    24    1
     7    24    25   ar
     8    25    26   ar
     9    26    27   ar
    10    27    30    1
    11    30    31   ar
    12    30    32   ar
    13    27    28   ar
    14    28    29   ar
    15     5     6   ar
    16     6     7    2
    17     6     8   ar
    18     8     9   ar
    19     9    10   ar
    20    10    14    1
    21    14    15    3
    22    15    16    1
    23    16    17    1
    24    17    18   ar
    25    18    19   ar
    26    19    20   ar
    27    20    21   ar
    28    21    22   ar
    29    10    11   ar
    30    11    12   ar
    31    12    13   ar
    32    13     2   ar
    33    29    24   ar
    34    13     8   ar
    35    22    17   ar
@<TRIPOS>MOLECULE
*****
 32 35 0 0 0
SMALL
GASTEIGER

@<TRIPOS>ATOM
      1 C          62.3918   90.1226    9.8756 C.3     1  UNL1        0.1351
      2 N          62.7423   89.6276   11.2474 N.ar    1  UNL1       -0.2791
      3 C          63.1148   90.6031   12.3243 C.ar    1  UNL1        0.3341
      4 O          63.1368   92.0737   12.0293 O.2     1  UNL1       -0.2462
      5 N          63.4654   90.1081   13.6962 N.ar    1  UNL1       -0.2445
      6 C          63.4435   88.6376   13.9912 C.ar    1  UNL1        0.2659
      7 O          63.7940   88.1425   15.3631 O.2     1  UNL1       -0.2668
      8 C          63.0709   87.6620   12.9143 C.ar    1  UNL1        0.0728
      9 C          63.0490   86.1915   13.2094 C.ar    1  UNL1        0.0144
     10 C          62.6764   85.2160   12.1325 C.ar    1  UNL1        0.0419
     11 C          62.3259   85.7110   10.7607 C.ar    1  UNL1        0.0097
     12 C          62.3478   87.1815   10.4656 C.ar    1  UNL1        0.0181
     13 C          62.7204   88.1570   11.5425 C.ar    1  UNL1        0.0685
     14 C          62.6545   83.7454   12.4276 C.1     1  UNL1       -0.0640
     15 C          62.6325   82.2749   12.7226 C.1     1  UNL1       -0.0816
     16 C          62.6105   80.8043   13.0176 C.3     1  UNL1        0.1026
     17 C          62.7210   79.8129   11.8973 C.ar    1  UNL1       -0.0092
     18 C          62.9247   80.2910   10.4902 C.ar    1  UNL1       -0.0033
     19 C          63.0352   79.2996    9.3699 C.ar    1  UNL1       -0.0003
     20 C          62.9419   77.8302    9.6568 C.ar    1  UNL1       -0.0000
     21 C          62.7382   77.3522   11.0640 C.ar    1  UNL1       -0.0003
     22 C          62.6277   78.3436   12.1842 C.ar    1  UNL1       -0.0033
     23 C          63.8379   91.0836   14.7730 C.3     1  UNL1        0.1403
     24 C          65.2400   91.6103   14.8556 C.ar    1  UNL1        0.0006
     25 C          65.7109   92.2973   16.1031 C.ar    1  UNL1       -0.0024
     26 C          67.1129   92.8239   16.1857 C.ar    1  UNL1        0.0009
     27 C          68.0441   92.6637   15.0207 C.ar    1  UNL1        0.0140
     28 C          67.5733   91.9767   13.7731 C.ar    1  UNL1        0.0009
     29 C          66.1711   91.4500   13.6906 C.ar    1  UNL1       -0.0024
     30 C          69.4462   93.1903   15.1033 C.2     1  UNL1        0.0729
     31 O          69.7956   94.2366   16.1197 O.co2   1  UNL1       -0.5446
     32 O          70.4987   92.6708   14.1694 O.co2   1  UNL1       -0.5446
@<TRIPOS>UNITY_ATOM_ATTR
31 1
charge -1
@<TRIPOS>BOND
     1     1     2    1
     2     2     3   ar
     3     3     4    2
     4     3     5   ar
     5     5    23    1
     6    23    24    1
     7    24    25   ar
     8    25    26   ar
     9    26    27   ar
    10    27    30    1
    11    30    31   ar
    12    30    32   ar
    13    27    28   ar
    14    28    29   ar
    15     5     6   ar
    16     6     7    2
    17     6     8   ar
    18     8     9   ar
    19     9    10   ar
    20    10    14    1
    21    14    15    3
    22    15    16    1
    23    16    17    1
    24    17    18   ar
    25    18    19   ar
    26    19    20   ar
    27    20    21   ar
    28    21    22   ar
    29    10    11   ar
    30    11    12   ar
    31    12    13   ar
    32    13     2   ar
    33    29    24   ar
    34    13     8   ar
    35    22    17   ar
