@<TRIPOS>MOLECULE
*****
 29 32 0 0 0
SMALL
GASTEIGER

@<TRIPOS>ATOM
      1 N          59.7692   88.1928   10.5038 N.pl3   1  UNL1       -0.3039
      2 H          58.8104   87.9847   10.5848 H       1  UNL1        0.1496
      3 C          60.5480   87.1560    7.7985 C.3     1  UNL1        0.1363
      4 N          61.1599   86.5637    9.0334 N.ar    1  UNL1       -0.2669
      5 C          60.7705   87.0821   10.3860 C.ar    1  UNL1        0.2002
      6 N          61.3824   86.4899   11.6209 N.ar    1  UNL1       -0.2150
      7 C          62.3837   85.3792   11.5031 C.ar    1  UNL1        0.0895
      8 C          62.9956   84.7870   12.7379 C.ar    1  UNL1        0.0307
      9 C          63.9968   83.6763   12.6201 C.ar    1  UNL1        0.0592
     10 CL         64.6087   83.0841   13.8550 Cl      1  UNL1       -0.0822
     11 C          64.3862   83.1579   11.2675 C.ar    1  UNL1        0.0116
     12 C          63.7743   83.7501   10.0327 C.ar    1  UNL1        0.0071
     13 C          62.7731   84.8608   10.1505 C.ar    1  UNL1        0.0740
     14 C          62.1611   85.4530    8.9156 C.ar    1  UNL1        0.2643
     15 O          62.5505   84.9346    7.5630 O.2     1  UNL1       -0.2668
     16 C          60.2288   89.6206   10.4982 C.3     1  UNL1        0.0942
     17 C          61.6161   89.9601   10.0399 C.3     1  UNL1        0.0476
     18 C          62.6358   90.4423   11.0288 C.ar    1  UNL1       -0.0204
     19 C          62.6509   89.8862   12.4218 C.ar    1  UNL1       -0.0027
     20 C          63.6705   90.3683   13.4107 C.ar    1  UNL1        0.0188
     21 C          64.6750   91.4064   13.0066 C.ar    1  UNL1        0.0829
     22 C          64.6598   91.9624   11.6135 C.ar    1  UNL1        0.0188
     23 C          63.6402   91.4804   10.6246 C.ar    1  UNL1       -0.0027
     24 N          65.6947   91.8885   13.9955 N.ar    1  UNL1       -0.2273
     25 C          67.1734   91.9826   13.7623 C.ar    1  UNL1        0.1133
     26 C          67.8072   92.5134   15.0139 C.ar    1  UNL1        0.0976
     27 CL         69.2711   92.7659   15.2222 Cl      1  UNL1       -0.0789
     28 C          66.7201   92.7473   16.0207 C.ar    1  UNL1        0.1334
     29 N          65.4145   92.3611   15.3913 N.ar    1  UNL1       -0.1625
@<TRIPOS>BOND
     1     3     4    1
     2     4     5   ar
     3     5     1    1
     4     1    16    1
     5    16    17    1
     6    17    18    1
     7    18    19   ar
     8    19    20   ar
     9    20    21   ar
    10    21    24    1
    11    24    25   ar
    12    25    26   ar
    13    26    27    1
    14    26    28   ar
    15    28    29   ar
    16    21    22   ar
    17    22    23   ar
    18     5     6   ar
    19     6     7   ar
    20     7     8   ar
    21     8     9   ar
    22     9    10    1
    23     9    11   ar
    24    11    12   ar
    25    12    13   ar
    26    13    14   ar
    27    14    15    2
    28    14     4   ar
    29    23    18   ar
    30    13     7   ar
    31    29    24   ar
    32     1     2    1
@<TRIPOS>MOLECULE
*****
 29 32 0 0 0
SMALL
GASTEIGER

@<TRIPOS>ATOM
      1 N          64.3435   87.9963   14.4718 N.pl3   1  UNL1       -0.3039
      2 H          65.2999   87.7874   14.5758 H       1  UNL1        0.1496
      3 C          64.1523   85.0258   14.0986 C.3     1  UNL1        0.1363
      4 N          63.4790   85.9487   13.1264 N.ar    1  UNL1       -0.2669
      5 C          63.5746   87.4340   13.3130 C.ar    1  UNL1        0.2002
      6 N          62.9014   88.3569   12.3409 N.ar    1  UNL1       -0.2150
      7 C          62.1326   87.7946   11.1822 C.ar    1  UNL1        0.0895
      8 C          61.4594   88.7175   10.2101 C.ar    1  UNL1        0.0307
      9 C          60.6906   88.1551    9.0514 C.ar    1  UNL1        0.0592
     10 CL         60.0173   89.0780    8.0792 Cl      1  UNL1       -0.0822
     11 C          60.5950   86.6698    8.8648 C.ar    1  UNL1        0.0116
     12 C          61.2681   85.7469    9.8368 C.ar    1  UNL1        0.0071
     13 C          62.0370   86.3093   10.9955 C.ar    1  UNL1        0.0740
     14 C          62.7102   85.3864   11.9677 C.ar    1  UNL1        0.2643
     15 O          62.6146   83.9011   11.7811 O.2     1  UNL1       -0.2668
     16 C          63.6551   88.8769   15.4721 C.3     1  UNL1        0.0942
     17 C          63.9596   90.3450   15.5138 C.3     1  UNL1        0.0476
     18 C          64.6969   90.9907   14.3782 C.ar    1  UNL1       -0.0204
     19 C          63.9827   91.2882   13.0931 C.ar    1  UNL1       -0.0027
     20 C          64.7199   91.9338   11.9575 C.ar    1  UNL1        0.0188
     21 C          66.1713   92.2819   12.1069 C.ar    1  UNL1        0.0829
     22 C          66.8854   91.9844   13.3920 C.ar    1  UNL1        0.0188
     23 C          66.1483   91.3388   14.5276 C.ar    1  UNL1       -0.0027
     24 N          66.9085   92.9276   10.9713 N.ar    1  UNL1       -0.2273
     25 C          66.5430   94.2205   10.3044 C.ar    1  UNL1        0.1133
     26 C          67.5493   94.4856    9.2241 C.ar    1  UNL1        0.0976
     27 CL         67.5653   95.6716    8.3058 Cl      1  UNL1       -0.0789
     28 C          68.5369   93.3565    9.2233 C.ar    1  UNL1        0.1334
     29 N          68.1408   92.3936   10.3031 N.ar    1  UNL1       -0.1625
@<TRIPOS>BOND
     1     3     4    1
     2     4     5   ar
     3     5     1    1
     4     1    16    1
     5    16    17    1
     6    17    18    1
     7    18    19   ar
     8    19    20   ar
     9    20    21   ar
    10    21    24    1
    11    24    25   ar
    12    25    26   ar
    13    26    27    1
    14    26    28   ar
    15    28    29   ar
    16    21    22   ar
    17    22    23   ar
    18     5     6   ar
    19     6     7   ar
    20     7     8   ar
    21     8     9   ar
    22     9    10    1
    23     9    11   ar
    24    11    12   ar
    25    12    13   ar
    26    13    14   ar
    27    14    15    2
    28    14     4   ar
    29    23    18   ar
    30    13     7   ar
    31    29    24   ar
    32     1     2    1
@<TRIPOS>MOLECULE
*****
 29 32 0 0 0
SMALL
GASTEIGER

@<TRIPOS>ATOM
      1 N          62.7213   83.6359   15.1183 N.pl3   1  UNL1       -0.3039
      2 H          63.1004   82.8083   15.4934 H       1  UNL1        0.1496
      3 C          64.3361   81.8139   13.3654 C.3     1  UNL1        0.1363
      4 N          63.6343   82.9988   12.7708 N.ar    1  UNL1       -0.2669
      5 C          62.8269   83.9098   13.6473 C.ar    1  UNL1        0.2002
      6 N          62.1251   85.0947   13.0528 N.ar    1  UNL1       -0.2150
      7 C          62.2307   85.3687   11.5818 C.ar    1  UNL1        0.0895
      8 C          61.5290   86.5536   10.9873 C.ar    1  UNL1        0.0307
      9 C          61.6346   86.8275    9.5163 C.ar    1  UNL1        0.0592
     10 CL         60.9328   88.0125    8.9218 Cl      1  UNL1       -0.0822
     11 C          62.4420   85.9165    8.6399 C.ar    1  UNL1        0.0116
     12 C          63.1438   84.7316    9.2344 C.ar    1  UNL1        0.0071
     13 C          63.0381   84.4577   10.7053 C.ar    1  UNL1        0.0740
     14 C          63.7399   83.2727   11.2999 C.ar    1  UNL1        0.2643
     15 O          64.5473   82.3618   10.4234 O.2     1  UNL1       -0.2668
     16 C          62.0381   84.6228   16.0179 C.3     1  UNL1        0.0942
     17 C          62.8521   85.5876   16.8281 C.3     1  UNL1        0.0476
     18 C          63.3495   86.8578   16.2041 C.ar    1  UNL1       -0.0204
     19 C          62.9879   88.1821   16.8087 C.ar    1  UNL1       -0.0027
     20 C          63.4854   89.4523   16.1848 C.ar    1  UNL1        0.0188
     21 C          64.3444   89.3981   14.9564 C.ar    1  UNL1        0.0829
     22 C          64.7061   88.0738   14.3519 C.ar    1  UNL1        0.0188
     23 C          64.2086   86.8037   14.9757 C.ar    1  UNL1       -0.0027
     24 N          64.8419   90.6683   14.3325 N.ar    1  UNL1       -0.2273
     25 C          65.7286   91.6847   14.9889 C.ar    1  UNL1        0.1133
     26 C          65.9747   92.7896   14.0047 C.ar    1  UNL1        0.0976
     27 CL         66.8089   94.0132   14.2433 Cl      1  UNL1       -0.0789
     28 C          65.2401   92.4561   12.7400 C.ar    1  UNL1        0.1334
     29 N          64.5401   91.1451   12.9427 N.ar    1  UNL1       -0.1625
@<TRIPOS>BOND
     1     3     4    1
     2     4     5   ar
     3     5     1    1
     4     1    16    1
     5    16    17    1
     6    17    18    1
     7    18    19   ar
     8    19    20   ar
     9    20    21   ar
    10    21    24    1
    11    24    25   ar
    12    25    26   ar
    13    26    27    1
    14    26    28   ar
    15    28    29   ar
    16    21    22   ar
    17    22    23   ar
    18     5     6   ar
    19     6     7   ar
    20     7     8   ar
    21     8     9   ar
    22     9    10    1
    23     9    11   ar
    24    11    12   ar
    25    12    13   ar
    26    13    14   ar
    27    14    15    2
    28    14     4   ar
    29    23    18   ar
    30    13     7   ar
    31    29    24   ar
    32     1     2    1
@<TRIPOS>MOLECULE
*****
 29 32 0 0 0
SMALL
GASTEIGER

@<TRIPOS>ATOM
      1 N          60.0079   88.1016   11.6385 N.pl3   1  UNL1       -0.3039
      2 H          59.0718   87.9026   11.8694 H       1  UNL1        0.1496
      3 C          60.3601   87.7964    8.6749 C.3     1  UNL1        0.1363
      4 N          61.0692   86.8663    9.6142 N.ar    1  UNL1       -0.2669
      5 C          60.8931   87.0189   11.0960 C.ar    1  UNL1        0.2002
      6 N          61.6022   86.0889   12.0352 N.ar    1  UNL1       -0.2150
      7 C          62.4873   85.0062   11.4927 C.ar    1  UNL1        0.0895
      8 C          63.1964   84.0762   12.4320 C.ar    1  UNL1        0.0307
      9 C          64.0815   82.9935   11.8894 C.ar    1  UNL1        0.0592
     10 CL         64.7906   82.0634   12.8287 Cl      1  UNL1       -0.0822
     11 C          64.2576   82.8409   10.4076 C.ar    1  UNL1        0.0116
     12 C          63.5486   83.7710    9.4684 C.ar    1  UNL1        0.0071
     13 C          62.6634   84.8536   10.0109 C.ar    1  UNL1        0.0740
     14 C          61.9543   85.7837    9.0717 C.ar    1  UNL1        0.2643
     15 O          62.1304   85.6311    7.5899 O.2     1  UNL1       -0.2668
     16 C          60.5490   89.4876   11.8292 C.3     1  UNL1        0.0942
     17 C          61.8396   89.6941   12.5651 C.3     1  UNL1        0.0476
     18 C          62.8803   90.6202   12.0088 C.ar    1  UNL1       -0.0204
     19 C          63.9864   91.1210   12.8896 C.ar    1  UNL1       -0.0027
     20 C          65.0271   92.0470   12.3333 C.ar    1  UNL1        0.0188
     21 C          64.9617   92.4721   10.8964 C.ar    1  UNL1        0.0829
     22 C          63.8556   91.9713   10.0156 C.ar    1  UNL1        0.0188
     23 C          62.8149   91.0453   10.5719 C.ar    1  UNL1       -0.0027
     24 N          66.0025   93.3982   10.3401 N.ar    1  UNL1       -0.2273
     25 C          65.9439   94.8970   10.3480 C.ar    1  UNL1        0.1133
     26 C          67.1897   95.4131    9.6910 C.ar    1  UNL1        0.0976
     27 CL         67.5446   96.8557    9.4843 Cl      1  UNL1       -0.0789
     28 C          68.0183   94.2331    9.2770 C.ar    1  UNL1        0.1334
     29 N          67.2845   92.9879    9.6782 N.ar    1  UNL1       -0.1625
@<TRIPOS>BOND
     1     3     4    1
     2     4     5   ar
     3     5     1    1
     4     1    16    1
     5    16    17    1
     6    17    18    1
     7    18    19   ar
     8    19    20   ar
     9    20    21   ar
    10    21    24    1
    11    24    25   ar
    12    25    26   ar
    13    26    27    1
    14    26    28   ar
    15    28    29   ar
    16    21    22   ar
    17    22    23   ar
    18     5     6   ar
    19     6     7   ar
    20     7     8   ar
    21     8     9   ar
    22     9    10    1
    23     9    11   ar
    24    11    12   ar
    25    12    13   ar
    26    13    14   ar
    27    14    15    2
    28    14     4   ar
    29    23    18   ar
    30    13     7   ar
    31    29    24   ar
    32     1     2    1
@<TRIPOS>MOLECULE
*****
 29 32 0 0 0
SMALL
GASTEIGER

@<TRIPOS>ATOM
      1 N          63.7416   90.2392   16.2003 N.pl3   1  UNL1       -0.3039
      2 H          64.4368   90.6749   16.7445 H       1  UNL1        0.1496
      3 C          65.7819   92.0053   14.8895 C.3     1  UNL1        0.1363
      4 N          64.6874   91.3877   14.0704 N.ar    1  UNL1       -0.2669
      5 C          63.6673   90.5047   14.7258 C.ar    1  UNL1        0.2002
      6 N          62.5729   89.8871   13.9068 N.ar    1  UNL1       -0.2150
      7 C          62.4986   90.1526   12.4323 C.ar    1  UNL1        0.0895
      8 C          61.4042   89.5350   11.6133 C.ar    1  UNL1        0.0307
      9 C          61.3299   89.8005   10.1389 C.ar    1  UNL1        0.0592
     10 CL         60.2354   89.1830    9.3198 Cl      1  UNL1       -0.0822
     11 C          62.3500   90.6836    9.4835 C.ar    1  UNL1        0.0116
     12 C          63.4444   91.3011   10.3025 C.ar    1  UNL1        0.0071
     13 C          63.5187   91.0357   11.7769 C.ar    1  UNL1        0.0740
     14 C          64.6132   91.6532   12.5960 C.ar    1  UNL1        0.2643
     15 O          65.6333   92.5363   11.9406 O.2     1  UNL1       -0.2668
     16 C          62.7568   89.3099   16.8456 C.3     1  UNL1        0.0942
     17 C          63.2140   87.9837   17.3767 C.3     1  UNL1        0.0476
     18 C          63.2196   86.7793   16.4825 C.ar    1  UNL1       -0.0204
     19 C          62.3512   85.6001   16.8073 C.ar    1  UNL1       -0.0027
     20 C          62.3567   84.3957   15.9132 C.ar    1  UNL1        0.0188
     21 C          63.2306   84.3706   14.6944 C.ar    1  UNL1        0.0829
     22 C          64.0990   85.5498   14.3696 C.ar    1  UNL1        0.0188
     23 C          64.0935   86.7541   15.2637 C.ar    1  UNL1       -0.0027
     24 N          63.2362   83.1662   13.8002 N.ar    1  UNL1       -0.2273
     25 C          63.2610   83.1815   12.3005 C.ar    1  UNL1        0.1133
     26 C          63.2581   81.7598   11.8222 C.ar    1  UNL1        0.0976
     27 CL         63.2782   81.3110   10.3911 Cl      1  UNL1       -0.0789
     28 C          63.2315   80.8657   13.0264 C.ar    1  UNL1        0.1334
     29 N          63.2180   81.7349   14.2488 N.ar    1  UNL1       -0.1625
@<TRIPOS>BOND
     1     3     4    1
     2     4     5   ar
     3     5     1    1
     4     1    16    1
     5    16    17    1
     6    17    18    1
     7    18    19   ar
     8    19    20   ar
     9    20    21   ar
    10    21    24    1
    11    24    25   ar
    12    25    26   ar
    13    26    27    1
    14    26    28   ar
    15    28    29   ar
    16    21    22   ar
    17    22    23   ar
    18     5     6   ar
    19     6     7   ar
    20     7     8   ar
    21     8     9   ar
    22     9    10    1
    23     9    11   ar
    24    11    12   ar
    25    12    13   ar
    26    13    14   ar
    27    14    15    2
    28    14     4   ar
    29    23    18   ar
    30    13     7   ar
    31    29    24   ar
    32     1     2    1
@<TRIPOS>MOLECULE
*****
 29 32 0 0 0
SMALL
GASTEIGER

@<TRIPOS>ATOM
      1 N          61.8022   87.2885    9.3389 N.pl3   1  UNL1       -0.3039
      2 H          61.9664   87.2986    8.3682 H       1  UNL1        0.1496
      3 C          63.1541   84.9537    8.0271 C.3     1  UNL1        0.1363
      4 N          62.9820   84.9805    9.5170 N.ar    1  UNL1       -0.2669
      5 C          62.3060   86.1480   10.1729 C.ar    1  UNL1        0.2002
      6 N          62.1338   86.1749   11.6627 N.ar    1  UNL1       -0.2150
      7 C          62.6376   85.0344   12.4967 C.ar    1  UNL1        0.0895
      8 C          62.4655   85.0613   13.9865 C.ar    1  UNL1        0.0307
      9 C          62.9693   83.9208   14.8204 C.ar    1  UNL1        0.0592
     10 CL         62.7971   83.9477   16.3103 Cl      1  UNL1       -0.0822
     11 C          63.6452   82.7534   14.1645 C.ar    1  UNL1        0.0116
     12 C          63.8174   82.7265   12.6747 C.ar    1  UNL1        0.0071
     13 C          63.3136   83.8670   11.8408 C.ar    1  UNL1        0.0740
     14 C          63.4858   83.8401   10.3509 C.ar    1  UNL1        0.2643
     15 O          64.1617   82.6726    9.6950 O.2     1  UNL1       -0.2668
     16 C          61.0484   88.4135    9.9838 C.3     1  UNL1        0.0942
     17 C          61.5715   89.8163    9.8925 C.3     1  UNL1        0.0476
     18 C          62.5698   90.3114   10.8968 C.ar    1  UNL1       -0.0204
     19 C          63.5319   91.4002   10.5239 C.ar    1  UNL1       -0.0027
     20 C          64.5301   91.8953   11.5281 C.ar    1  UNL1        0.0188
     21 C          64.5662   91.3017   12.9051 C.ar    1  UNL1        0.0829
     22 C          63.6041   90.2129   13.2780 C.ar    1  UNL1        0.0188
     23 C          62.6059   89.7178   12.2738 C.ar    1  UNL1       -0.0027
     24 N          65.5644   91.7968   13.9094 N.ar    1  UNL1       -0.2273
     25 C          67.0459   91.9047   13.7006 C.ar    1  UNL1        0.1133
     26 C          67.6534   92.4455   14.9609 C.ar    1  UNL1        0.0976
     27 CL         69.1111   92.7130   15.1928 Cl      1  UNL1       -0.0789
     28 C          66.5474   92.6718   15.9486 C.ar    1  UNL1        0.1334
     29 N          65.2564   92.2709   15.2987 N.ar    1  UNL1       -0.1625
@<TRIPOS>BOND
     1     3     4    1
     2     4     5   ar
     3     5     1    1
     4     1    16    1
     5    16    17    1
     6    17    18    1
     7    18    19   ar
     8    19    20   ar
     9    20    21   ar
    10    21    24    1
    11    24    25   ar
    12    25    26   ar
    13    26    27    1
    14    26    28   ar
    15    28    29   ar
    16    21    22   ar
    17    22    23   ar
    18     5     6   ar
    19     6     7   ar
    20     7     8   ar
    21     8     9   ar
    22     9    10    1
    23     9    11   ar
    24    11    12   ar
    25    12    13   ar
    26    13    14   ar
    27    14    15    2
    28    14     4   ar
    29    23    18   ar
    30    13     7   ar
    31    29    24   ar
    32     1     2    1
@<TRIPOS>MOLECULE
*****
 29 32 0 0 0
SMALL
GASTEIGER

@<TRIPOS>ATOM
      1 N          63.5374   85.8153   14.3485 N.pl3   1  UNL1       -0.3039
      2 H          63.1734   85.2078   15.0323 H       1  UNL1        0.1496
      3 C          64.5915   83.4604   12.8177 C.3     1  UNL1        0.1363
      4 N          63.6929   84.4531   12.1415 N.ar    1  UNL1       -0.2669
      5 C          63.1658   85.6306   12.9069 C.ar    1  UNL1        0.2002
      6 N          62.2673   86.6233   12.2309 N.ar    1  UNL1       -0.2150
      7 C          61.8957   86.4386   10.7894 C.ar    1  UNL1        0.0895
      8 C          60.9972   87.4313   10.1133 C.ar    1  UNL1        0.0307
      9 C          60.6257   87.2465    8.6719 C.ar    1  UNL1        0.0592
     10 CL         59.7271   88.2393    7.9957 Cl      1  UNL1       -0.0822
     11 C          61.1527   86.0691    7.9065 C.ar    1  UNL1        0.0116
     12 C          62.0513   85.0764    8.5825 C.ar    1  UNL1        0.0071
     13 C          62.4228   85.2611   10.0240 C.ar    1  UNL1        0.0740
     14 C          63.3214   84.2684   10.7001 C.ar    1  UNL1        0.2643
     15 O          63.8484   83.0909    9.9347 O.2     1  UNL1       -0.2668
     16 C          64.4634   86.9255   14.7479 C.3     1  UNL1        0.0942
     17 C          63.9151   88.2906   15.0412 C.3     1  UNL1        0.0476
     18 C          64.3605   89.4687   14.2264 C.ar    1  UNL1       -0.0204
     19 C          63.6188   89.8396   12.9765 C.ar    1  UNL1       -0.0027
     20 C          64.0641   91.0176   12.1617 C.ar    1  UNL1        0.0188
     21 C          65.2512   91.8248   12.5969 C.ar    1  UNL1        0.0829
     22 C          65.9929   91.4539   13.8469 C.ar    1  UNL1        0.0188
     23 C          65.5475   90.2758   14.6616 C.ar    1  UNL1       -0.0027
     24 N          65.6966   93.0029   11.7822 N.ar    1  UNL1       -0.2273
     25 C          65.9892   94.3774   12.3064 C.ar    1  UNL1        0.1133
     26 C          66.4010   95.2373   11.1484 C.ar    1  UNL1        0.0976
     27 CL         66.7837   96.6860   11.2181 Cl      1  UNL1       -0.0789
     28 C          66.3629   94.3941    9.9084 C.ar    1  UNL1        0.1334
     29 N          65.9276   93.0132   10.3001 N.ar    1  UNL1       -0.1625
@<TRIPOS>BOND
     1     3     4    1
     2     4     5   ar
     3     5     1    1
     4     1    16    1
     5    16    17    1
     6    17    18    1
     7    18    19   ar
     8    19    20   ar
     9    20    21   ar
    10    21    24    1
    11    24    25   ar
    12    25    26   ar
    13    26    27    1
    14    26    28   ar
    15    28    29   ar
    16    21    22   ar
    17    22    23   ar
    18     5     6   ar
    19     6     7   ar
    20     7     8   ar
    21     8     9   ar
    22     9    10    1
    23     9    11   ar
    24    11    12   ar
    25    12    13   ar
    26    13    14   ar
    27    14    15    2
    28    14     4   ar
    29    23    18   ar
    30    13     7   ar
    31    29    24   ar
    32     1     2    1
@<TRIPOS>MOLECULE
*****
 29 32 0 0 0
SMALL
GASTEIGER

@<TRIPOS>ATOM
      1 N          62.4325   89.3987   15.4286 N.pl3   1  UNL1       -0.3039
      2 H          61.6815   89.0468   14.8981 H       1  UNL1        0.1496
      3 C          62.3662   89.8582   12.4647 C.3     1  UNL1        0.1363
      4 N          63.4196   90.5200   13.3030 N.ar    1  UNL1       -0.2669
      5 C          63.4527   90.2903   14.7849 C.ar    1  UNL1        0.2002
      6 N          64.5060   90.9521   15.6231 N.ar    1  UNL1       -0.2150
      7 C          65.5262   91.8437   14.9794 C.ar    1  UNL1        0.0895
      8 C          66.5795   92.5054   15.8176 C.ar    1  UNL1        0.0307
      9 C          67.5996   93.3969   15.1738 C.ar    1  UNL1        0.0592
     10 CL         68.6530   94.0588   16.0120 Cl      1  UNL1       -0.0822
     11 C          67.5665   93.6267   13.6919 C.ar    1  UNL1        0.0116
     12 C          66.5133   92.9649   12.8537 C.ar    1  UNL1        0.0071
     13 C          65.4931   92.0734   13.4974 C.ar    1  UNL1        0.0740
     14 C          64.4397   91.4116   12.6592 C.ar    1  UNL1        0.2643
     15 O          64.4066   91.6413   11.1773 O.2     1  UNL1       -0.2668
     16 C          62.5564   89.0434   16.8806 C.3     1  UNL1        0.0942
     17 C          63.2805   87.7945   17.2879 C.3     1  UNL1        0.0476
     18 C          63.2441   86.5839   16.4028 C.ar    1  UNL1       -0.0204
     19 C          62.2131   85.5187   16.6312 C.ar    1  UNL1       -0.0027
     20 C          62.1766   84.3082   15.7462 C.ar    1  UNL1        0.0188
     21 C          63.1712   84.1629   14.6328 C.ar    1  UNL1        0.0829
     22 C          64.2023   85.2281   14.4045 C.ar    1  UNL1        0.0188
     23 C          64.2387   86.4387   15.2894 C.ar    1  UNL1       -0.0027
     24 N          63.1348   82.9523   13.7478 N.ar    1  UNL1       -0.2273
     25 C          63.1849   82.9543   12.2486 C.ar    1  UNL1        0.1133
     26 C          63.1230   81.5305   11.7809 C.ar    1  UNL1        0.0976
     27 CL         63.1455   81.0695   10.3536 Cl      1  UNL1       -0.0789
     28 C          63.0345   80.6484   12.9909 C.ar    1  UNL1        0.1334
     29 N          63.0419   81.5272   14.2065 N.ar    1  UNL1       -0.1625
@<TRIPOS>BOND
     1     3     4    1
     2     4     5   ar
     3     5     1    1
     4     1    16    1
     5    16    17    1
     6    17    18    1
     7    18    19   ar
     8    19    20   ar
     9    20    21   ar
    10    21    24    1
    11    24    25   ar
    12    25    26   ar
    13    26    27    1
    14    26    28   ar
    15    28    29   ar
    16    21    22   ar
    17    22    23   ar
    18     5     6   ar
    19     6     7   ar
    20     7     8   ar
    21     8     9   ar
    22     9    10    1
    23     9    11   ar
    24    11    12   ar
    25    12    13   ar
    26    13    14   ar
    27    14    15    2
    28    14     4   ar
    29    23    18   ar
    30    13     7   ar
    31    29    24   ar
    32     1     2    1
@<TRIPOS>MOLECULE
*****
 29 32 0 0 0
SMALL
GASTEIGER

@<TRIPOS>ATOM
      1 N          63.1083   83.2645   12.9699 N.pl3   1  UNL1       -0.3039
      2 H          63.7986   82.5892   12.7782 H       1  UNL1        0.1496
      3 C          63.9559   82.8482   10.1224 C.3     1  UNL1        0.1363
      4 N          63.1490   84.0564   10.4957 N.ar    1  UNL1       -0.2669
      5 C          62.7252   84.2646   11.9195 C.ar    1  UNL1        0.2002
      6 N          61.9184   85.4727   12.2929 N.ar    1  UNL1       -0.2150
      7 C          61.5354   86.4727   11.2425 C.ar    1  UNL1        0.0895
      8 C          60.7285   87.6808   11.6159 C.ar    1  UNL1        0.0307
      9 C          60.3455   88.6808   10.5655 C.ar    1  UNL1        0.0592
     10 CL         59.5386   89.8890   10.9389 Cl      1  UNL1       -0.0822
     11 C          60.7693   88.4727    9.1417 C.ar    1  UNL1        0.0116
     12 C          61.5761   87.2645    8.7684 C.ar    1  UNL1        0.0071
     13 C          61.9592   86.2646    9.8187 C.ar    1  UNL1        0.0740
     14 C          62.7660   85.0564    9.4454 C.ar    1  UNL1        0.2643
     15 O          63.1898   84.8482    8.0216 O.2     1  UNL1       -0.2668
     16 C          62.4397   83.2934   14.3123 C.3     1  UNL1        0.0942
     17 C          63.1556   83.8765   15.4943 C.3     1  UNL1        0.0476
     18 C          63.4235   85.3511   15.5564 C.ar    1  UNL1       -0.0204
     19 C          62.8528   86.1706   16.6756 C.ar    1  UNL1       -0.0027
     20 C          63.1206   87.6452   16.7377 C.ar    1  UNL1        0.0188
     21 C          63.9591   88.3003   15.6806 C.ar    1  UNL1        0.0829
     22 C          64.5298   87.4808   14.5613 C.ar    1  UNL1        0.0188
     23 C          64.2620   86.0062   14.4992 C.ar    1  UNL1       -0.0027
     24 N          64.2270   89.7749   15.7426 N.ar    1  UNL1       -0.2273
     25 C          65.2498   90.5199   14.9372 C.ar    1  UNL1        0.1133
     26 C          65.1740   91.9688   15.3178 C.ar    1  UNL1        0.0976
     27 CL         66.0195   93.0733   14.7563 Cl      1  UNL1       -0.0789
     28 C          64.1042   92.1193   16.3585 C.ar    1  UNL1        0.1334
     29 N          63.5190   90.7634   16.6210 N.ar    1  UNL1       -0.1625
@<TRIPOS>BOND
     1     3     4    1
     2     4     5   ar
     3     5     1    1
     4     1    16    1
     5    16    17    1
     6    17    18    1
     7    18    19   ar
     8    19    20   ar
     9    20    21   ar
    10    21    24    1
    11    24    25   ar
    12    25    26   ar
    13    26    27    1
    14    26    28   ar
    15    28    29   ar
    16    21    22   ar
    17    22    23   ar
    18     5     6   ar
    19     6     7   ar
    20     7     8   ar
    21     8     9   ar
    22     9    10    1
    23     9    11   ar
    24    11    12   ar
    25    12    13   ar
    26    13    14   ar
    27    14    15    2
    28    14     4   ar
    29    23    18   ar
    30    13     7   ar
    31    29    24   ar
    32     1     2    1
