@<TRIPOS>MOLECULE
*****
 25 27 0 0 0
SMALL
GASTEIGER

@<TRIPOS>ATOM
      1 C          65.0824   91.2764   13.7260 C.2     1  UNL1        0.0919
      2 C          64.9306   90.1050   14.6504 C.2     1  UNL1        0.0183
      3 C          64.1357   88.9080   14.2200 C.2     1  UNL1        0.0511
      4 C          63.4925   88.8824   12.8652 C.2     1  UNL1        0.2322
      5 N          62.6560   87.8491   12.1705 N.2     1  UNL1       -0.0308
      6 C          62.2907   88.3820   10.8168 C.2     1  UNL1        0.3752
      7 N          62.9015   89.7446   10.6747 N.2     1  UNL1       -0.0347
      8 C          63.6443   90.0538   11.9407 C.2     1  UNL1        0.2191
      9 C          64.4392   91.2508   12.3711 C.3     1  UNL1        0.1226
     10 C          61.4604   87.6761    9.7860 C.ar    1  UNL1        0.0884
     11 C          59.9988   87.9882    9.6582 C.ar    1  UNL1        0.0077
     12 C          59.1685   87.2824    8.6275 C.ar    1  UNL1        0.0002
     13 C          59.7997   86.2644    7.7247 C.ar    1  UNL1        0.0039
     14 C          61.2613   85.9523    7.8525 C.ar    1  UNL1        0.0717
     15 C          62.0916   86.6581    8.8832 C.ar    1  UNL1        0.0115
     16 C          61.8926   84.9343    6.9496 C.3     1  UNL1        0.4186
     17 F          62.5238   83.9163    6.0467 F       1  UNL1       -0.1659
     18 F          63.2379   85.2521    7.5317 F       1  UNL1       -0.1659
     19 F          60.5472   84.6164    6.3673 F       1  UNL1       -0.1659
     20 S          65.8773   92.4734   14.1564 S.O2    1  UNL1        0.0054
     21 O          65.2012   92.4411   15.4950 O.2     1  UNL1       -0.1689
     22 O          66.5534   92.5057   12.8178 O.2     1  UNL1       -0.1689
     23 C          66.6723   93.6704   14.5868 C.3     1  UNL1        0.1556
     24 C          68.7433   92.5235   15.6571 C.3     1  UNL1        0.0019
     25 C          67.6537   93.5528   15.7150 C.3     1  UNL1        0.0257
@<TRIPOS>BOND
     1    24    25    1
     2    25    23    1
     3    23    20    1
     4    20    21    2
     5    20    22    2
     6    20     1    1
     7     1     2    2
     8     2     3    1
     9     3     4    2
    10     4     5    1
    11     5     6    2
    12     6    10    1
    13    10    11   ar
    14    11    12   ar
    15    12    13   ar
    16    13    14   ar
    17    14    16    1
    18    16    17    1
    19    16    18    1
    20    16    19    1
    21    14    15   ar
    22     6     7    1
    23     7     8    2
    24     8     9    1
    25     9     1    1
    26     8     4    1
    27    15    10   ar
@<TRIPOS>MOLECULE
*****
 25 27 0 0 0
SMALL
GASTEIGER

@<TRIPOS>ATOM
      1 C          64.5461   90.2847   14.0536 C.2     1  UNL1        0.0919
      2 C          63.8364   90.4479   12.7423 C.2     1  UNL1        0.0183
      3 C          63.2137   89.2584   12.0735 C.2     1  UNL1        0.0511
      4 C          63.3007   87.9058   12.7159 C.2     1  UNL1        0.2322
      5 N          62.7873   86.5604   12.2962 N.2     1  UNL1       -0.0308
      6 C          63.1798   85.5656   13.3481 C.2     1  UNL1        0.3752
      7 N          63.9357   86.2963   14.4179 N.2     1  UNL1       -0.0347
      8 C          64.0105   87.7426   14.0272 C.2     1  UNL1        0.2191
      9 C          64.6332   88.9321   14.6961 C.3     1  UNL1        0.1226
     10 C          62.8705   84.0979   13.3328 C.ar    1  UNL1        0.0884
     11 C          62.3007   83.4387   14.5538 C.ar    1  UNL1        0.0077
     12 C          61.9915   81.9711   14.5386 C.ar    1  UNL1        0.0002
     13 C          62.2520   81.1626   13.3023 C.ar    1  UNL1        0.0039
     14 C          62.8217   81.8217   12.0813 C.ar    1  UNL1        0.0717
     15 C          63.1310   83.2894   12.0965 C.ar    1  UNL1        0.0115
     16 C          63.0822   81.0131   10.8449 C.3     1  UNL1        0.4186
     17 F          63.3427   80.2046    9.6087 F       1  UNL1       -0.1659
     18 F          62.6786   79.7666   11.5751 F       1  UNL1       -0.1659
     19 F          63.4859   82.2597   10.1147 F       1  UNL1       -0.1659
     20 S          65.1688   91.4742   14.7225 S.O2    1  UNL1        0.0054
     21 O          66.3693   91.3463   13.8324 O.2     1  UNL1       -0.1689
     22 O          63.9683   91.6021   15.6127 O.2     1  UNL1       -0.1689
     23 C          65.7915   92.6637   15.3914 C.3     1  UNL1        0.1556
     24 C          68.2283   93.4622   15.8091 C.3     1  UNL1        0.0019
     25 C          67.1004   92.5202   16.1099 C.3     1  UNL1        0.0257
@<TRIPOS>BOND
     1    24    25    1
     2    25    23    1
     3    23    20    1
     4    20    21    2
     5    20    22    2
     6    20     1    1
     7     1     2    2
     8     2     3    1
     9     3     4    2
    10     4     5    1
    11     5     6    2
    12     6    10    1
    13    10    11   ar
    14    11    12   ar
    15    12    13   ar
    16    13    14   ar
    17    14    16    1
    18    16    17    1
    19    16    18    1
    20    16    19    1
    21    14    15   ar
    22     6     7    1
    23     7     8    2
    24     8     9    1
    25     9     1    1
    26     8     4    1
    27    15    10   ar
@<TRIPOS>MOLECULE
*****
 25 27 0 0 0
SMALL
GASTEIGER

@<TRIPOS>ATOM
      1 C          65.1550   91.4639   13.5779 C.2     1  UNL1        0.0919
      2 C          64.9496   90.2428   14.4244 C.2     1  UNL1        0.0183
      3 C          64.0569   89.1378   13.9429 C.2     1  UNL1        0.0511
      4 C          63.3696   89.2538   12.6147 C.2     1  UNL1        0.2322
      5 N          62.4385   88.3334   11.8826 N.2     1  UNL1       -0.0308
      6 C          62.0684   88.9857   10.5835 C.2     1  UNL1        0.3752
      7 N          62.7708   90.3092   10.5127 N.2     1  UNL1       -0.0347
      8 C          63.5749   90.4749   11.7681 C.2     1  UNL1        0.2191
      9 C          64.4677   91.5799   12.2497 C.3     1  UNL1        0.1226
     10 C          61.1561   88.4146    9.5386 C.ar    1  UNL1        0.0884
     11 C          60.8625   86.9438    9.5221 C.ar    1  UNL1        0.0077
     12 C          59.9503   86.3727    8.4773 C.ar    1  UNL1        0.0002
     13 C          59.3316   87.2725    7.4490 C.ar    1  UNL1        0.0039
     14 C          59.6252   88.7434    7.4655 C.ar    1  UNL1        0.0717
     15 C          60.5374   89.3145    8.5103 C.ar    1  UNL1        0.0115
     16 C          59.0065   89.6433    6.4371 C.3     1  UNL1        0.4186
     17 F          58.3877   90.5431    5.4088 F       1  UNL1       -0.1659
     18 F          60.3720   90.0905    6.0068 F       1  UNL1       -0.1659
     19 F          57.6408   89.1961    6.8674 F       1  UNL1       -0.1659
     20 S          66.0478   92.5689   14.0594 S.O2    1  UNL1        0.0054
     21 O          66.8056   92.5204   12.7659 O.2     1  UNL1       -0.1689
     22 O          65.2899   92.6174   15.3530 O.2     1  UNL1       -0.1689
     23 C          66.9405   93.6739   14.5410 C.3     1  UNL1        0.1556
     24 C          68.4746   92.1161   15.9443 C.3     1  UNL1        0.0019
     25 C          67.8332   93.4543   15.7263 C.3     1  UNL1        0.0257
@<TRIPOS>BOND
     1    24    25    1
     2    25    23    1
     3    23    20    1
     4    20    21    2
     5    20    22    2
     6    20     1    1
     7     1     2    2
     8     2     3    1
     9     3     4    2
    10     4     5    1
    11     5     6    2
    12     6    10    1
    13    10    11   ar
    14    11    12   ar
    15    12    13   ar
    16    13    14   ar
    17    14    16    1
    18    16    17    1
    19    16    18    1
    20    16    19    1
    21    14    15   ar
    22     6     7    1
    23     7     8    2
    24     8     9    1
    25     9     1    1
    26     8     4    1
    27    15    10   ar
@<TRIPOS>MOLECULE
*****
 25 27 0 0 0
SMALL
GASTEIGER

@<TRIPOS>ATOM
      1 C          65.5229   92.1822   13.5564 C.2     1  UNL1        0.0919
      2 C          65.5861   93.0329   12.3226 C.2     1  UNL1        0.0183
      3 C          64.8196   92.6340   11.0964 C.2     1  UNL1        0.0511
      4 C          63.9899   91.3844   11.1041 C.2     1  UNL1        0.2322
      5 N          63.1330   90.7421   10.0538 N.2     1  UNL1       -0.0308
      6 C          62.5401   89.4945   10.6385 C.2     1  UNL1        0.3752
      7 N          63.0306   89.3656   12.0502 N.2     1  UNL1       -0.0347
      8 C          63.9267   90.5338   12.3379 C.2     1  UNL1        0.2191
      9 C          64.6931   90.9326   13.5640 C.3     1  UNL1        0.1226
     10 C          61.6185   88.5427    9.9350 C.ar    1  UNL1        0.0884
     11 C          60.1327   88.7116   10.0538 C.ar    1  UNL1        0.0077
     12 C          59.2111   87.7599    9.3503 C.ar    1  UNL1        0.0002
     13 C          59.7753   86.6393    8.5281 C.ar    1  UNL1        0.0039
     14 C          61.2610   86.4705    8.4093 C.ar    1  UNL1        0.0717
     15 C          62.1826   87.4222    9.1128 C.ar    1  UNL1        0.0115
     16 C          61.8251   85.3499    7.5870 C.3     1  UNL1        0.4186
     17 F          62.3892   84.2293    6.7648 F       1  UNL1       -0.1659
     18 F          60.4696   85.1022    6.9945 F       1  UNL1       -0.1659
     19 F          63.1807   85.5975    8.1796 F       1  UNL1       -0.1659
     20 S          66.2894   92.5811   14.7825 S.O2    1  UNL1        0.0054
     21 O          65.1160   92.2054   15.6382 O.2     1  UNL1       -0.1689
     22 O          67.4627   92.9567   13.9268 O.2     1  UNL1       -0.1689
     23 C          67.0558   92.9800   16.0086 C.3     1  UNL1        0.1556
     24 C          69.3789   94.1322   16.1685 C.3     1  UNL1        0.0019
     25 C          68.5530   92.8889   16.0198 C.3     1  UNL1        0.0257
@<TRIPOS>BOND
     1    24    25    1
     2    25    23    1
     3    23    20    1
     4    20    21    2
     5    20    22    2
     6    20     1    1
     7     1     2    2
     8     2     3    1
     9     3     4    2
    10     4     5    1
    11     5     6    2
    12     6    10    1
    13    10    11   ar
    14    11    12   ar
    15    12    13   ar
    16    13    14   ar
    17    14    16    1
    18    16    17    1
    19    16    18    1
    20    16    19    1
    21    14    15   ar
    22     6     7    1
    23     7     8    2
    24     8     9    1
    25     9     1    1
    26     8     4    1
    27    15    10   ar
@<TRIPOS>MOLECULE
*****
 25 27 0 0 0
SMALL
GASTEIGER

@<TRIPOS>ATOM
      1 C          63.2503   83.7456   12.9482 C.2     1  UNL1        0.0919
      2 C          62.6697   84.4493   11.7576 C.2     1  UNL1        0.0183
      3 C          62.6936   85.9474   11.6866 C.2     1  UNL1        0.0511
      4 C          63.2981   86.7418   12.8061 C.2     1  UNL1        0.2322
      5 N          63.4637   88.2181   13.0140 N.2     1  UNL1       -0.0308
      6 C          64.1467   88.4267   14.3331 C.2     1  UNL1        0.3752
      7 N          64.4031   87.0794   14.9405 N.2     1  UNL1       -0.0347
      8 C          63.8786   86.0381   13.9968 C.2     1  UNL1        0.2191
      9 C          63.8548   84.5400   14.0678 C.3     1  UNL1        0.1226
     10 C          64.5095   89.7504   14.9385 C.ar    1  UNL1        0.0884
     11 C          63.5887   90.3998   15.9287 C.ar    1  UNL1        0.0077
     12 C          63.9514   91.7234   16.5341 C.ar    1  UNL1        0.0002
     13 C          65.2349   92.3975   16.1493 C.ar    1  UNL1        0.0039
     14 C          66.1557   91.7481   15.1591 C.ar    1  UNL1        0.0717
     15 C          65.7930   90.4245   14.5537 C.ar    1  UNL1        0.0115
     16 C          67.4392   92.4223   14.7743 C.3     1  UNL1        0.4186
     17 F          68.7227   93.0965   14.3896 F       1  UNL1       -0.1659
     18 F          67.3980   91.7392   13.4396 F       1  UNL1       -0.1659
     19 F          67.4806   93.1055   16.1092 F       1  UNL1       -0.1659
     20 S          63.2264   82.2474   13.0192 S.O2    1  UNL1        0.0054
     21 O          62.7063   82.1891   11.6135 O.2     1  UNL1       -0.1689
     22 O          63.7465   82.3058   14.4250 O.2     1  UNL1       -0.1689
     23 C          63.2025   80.7493   13.0903 C.3     1  UNL1        0.1556
     24 C          60.8089   80.7808   14.1000 C.3     1  UNL1        0.0019
     25 C          61.9306   80.0352   13.4397 C.3     1  UNL1        0.0257
@<TRIPOS>BOND
     1    24    25    1
     2    25    23    1
     3    23    20    1
     4    20    21    2
     5    20    22    2
     6    20     1    1
     7     1     2    2
     8     2     3    1
     9     3     4    2
    10     4     5    1
    11     5     6    2
    12     6    10    1
    13    10    11   ar
    14    11    12   ar
    15    12    13   ar
    16    13    14   ar
    17    14    16    1
    18    16    17    1
    19    16    18    1
    20    16    19    1
    21    14    15   ar
    22     6     7    1
    23     7     8    2
    24     8     9    1
    25     9     1    1
    26     8     4    1
    27    15    10   ar
@<TRIPOS>MOLECULE
*****
 25 27 0 0 0
SMALL
GASTEIGER

@<TRIPOS>ATOM
      1 C          63.0181   82.8363   13.6924 C.2     1  UNL1        0.0919
      2 C          62.6666   82.7232   15.1462 C.2     1  UNL1        0.0183
      3 C          62.7490   83.9297   16.0338 C.2     1  UNL1        0.0511
      4 C          63.1828   85.2491   15.4675 C.2     1  UNL1        0.2322
      5 N          63.3577   86.6012   16.0932 N.2     1  UNL1       -0.0308
      6 C          63.8172   87.5499   15.0260 C.2     1  UNL1        0.3752
      7 N          63.9264   86.7842   13.7408 N.2     1  UNL1       -0.0347
      8 C          63.5343   85.3622   14.0137 C.2     1  UNL1        0.2191
      9 C          63.4519   84.1558   13.1261 C.3     1  UNL1        0.1226
     10 C          64.1152   89.0083   15.2116 C.ar    1  UNL1        0.0884
     11 C          63.4864   89.7641   16.3444 C.ar    1  UNL1        0.0077
     12 C          63.7844   91.2224   16.5299 C.ar    1  UNL1        0.0002
     13 C          64.7112   91.9249   15.5827 C.ar    1  UNL1        0.0039
     14 C          65.3401   91.1691   14.4499 C.ar    1  UNL1        0.0717
     15 C          65.0421   89.7108   14.2643 C.ar    1  UNL1        0.0115
     16 C          66.2671   91.8717   13.5026 C.3     1  UNL1        0.4186
     17 F          67.1939   92.5742   12.5554 F       1  UNL1       -0.1659
     18 F          67.4359   91.4846   14.3593 F       1  UNL1       -0.1659
     19 F          65.0981   92.2588   12.6459 F       1  UNL1       -0.1659
     20 S          62.9357   81.6299   12.8048 S.O2    1  UNL1        0.0054
     21 O          62.6737   82.5168   11.6237 O.2     1  UNL1       -0.1689
     22 O          63.1976   80.7431   13.9858 O.2     1  UNL1       -0.1689
     23 C          62.8533   80.4235   11.9172 C.3     1  UNL1        0.1556
     24 C          62.7916   79.4057    9.5276 C.3     1  UNL1        0.0019
     25 C          63.0717   80.5631   10.4398 C.3     1  UNL1        0.0257
@<TRIPOS>BOND
     1    24    25    1
     2    25    23    1
     3    23    20    1
     4    20    21    2
     5    20    22    2
     6    20     1    1
     7     1     2    2
     8     2     3    1
     9     3     4    2
    10     4     5    1
    11     5     6    2
    12     6    10    1
    13    10    11   ar
    14    11    12   ar
    15    12    13   ar
    16    13    14   ar
    17    14    16    1
    18    16    17    1
    19    16    18    1
    20    16    19    1
    21    14    15   ar
    22     6     7    1
    23     7     8    2
    24     8     9    1
    25     9     1    1
    26     8     4    1
    27    15    10   ar
@<TRIPOS>MOLECULE
*****
 25 27 0 0 0
SMALL
GASTEIGER

@<TRIPOS>ATOM
      1 C          63.1817   82.5867   13.4539 C.2     1  UNL1        0.0919
      2 C          63.5266   82.6946   14.9097 C.2     1  UNL1        0.0183
      3 C          63.8319   84.0346   15.5109 C.2     1  UNL1        0.0511
      4 C          63.7923   85.2666   14.6562 C.2     1  UNL1        0.2322
      5 N          64.0448   86.7122   14.9668 N.2     1  UNL1       -0.0308
      6 C          63.8560   87.4977   13.7030 C.2     1  UNL1        0.3752
      7 N          63.4868   86.5377   12.6112 N.2     1  UNL1       -0.0347
      8 C          63.4474   85.1587   13.2004 C.2     1  UNL1        0.2191
      9 C          63.1421   83.8188   12.5993 C.3     1  UNL1        0.1226
     10 C          64.0094   88.9827   13.5566 C.ar    1  UNL1        0.0884
     11 C          63.4152   89.6849   12.3717 C.ar    1  UNL1        0.0077
     12 C          63.5686   91.1698   12.2253 C.ar    1  UNL1        0.0002
     13 C          64.3162   91.9525   13.2638 C.ar    1  UNL1        0.0039
     14 C          64.9104   91.2503   14.4486 C.ar    1  UNL1        0.0717
     15 C          64.7570   89.7654   14.5950 C.ar    1  UNL1        0.0115
     16 C          65.6580   92.0331   15.4871 C.3     1  UNL1        0.4186
     17 F          66.4055   92.8159   16.5256 F       1  UNL1       -0.1659
     18 F          66.8030   92.2047   14.5335 F       1  UNL1       -0.1659
     19 F          64.5129   91.8616   16.4408 F       1  UNL1       -0.1659
     20 S          62.8764   81.2468   12.8528 S.O2    1  UNL1        0.0054
     21 O          62.8510   80.6377   14.2233 O.2     1  UNL1       -0.1689
     22 O          62.9018   81.8559   11.4823 O.2     1  UNL1       -0.1689
     23 C          62.5711   79.9069   12.2517 C.3     1  UNL1        0.1556
     24 C          62.7548   78.2891   10.2271 C.3     1  UNL1        0.0019
     25 C          62.7642   79.6830   10.7811 C.3     1  UNL1        0.0257
@<TRIPOS>BOND
     1    24    25    1
     2    25    23    1
     3    23    20    1
     4    20    21    2
     5    20    22    2
     6    20     1    1
     7     1     2    2
     8     2     3    1
     9     3     4    2
    10     4     5    1
    11     5     6    2
    12     6    10    1
    13    10    11   ar
    14    11    12   ar
    15    12    13   ar
    16    13    14   ar
    17    14    16    1
    18    16    17    1
    19    16    18    1
    20    16    19    1
    21    14    15   ar
    22     6     7    1
    23     7     8    2
    24     8     9    1
    25     9     1    1
    26     8     4    1
    27    15    10   ar
@<TRIPOS>MOLECULE
*****
 25 27 0 0 0
SMALL
GASTEIGER

@<TRIPOS>ATOM
      1 C          62.8292   83.9540   14.1883 C.2     1  UNL1        0.0919
      2 C          63.0512   84.2200   15.6477 C.2     1  UNL1        0.0183
      3 C          63.5073   85.5748   16.1022 C.2     1  UNL1        0.0511
      4 C          63.7413   86.6635   15.0974 C.2     1  UNL1        0.2322
      5 N          64.1889   88.0875   15.2462 N.2     1  UNL1       -0.0308
      6 C          64.2435   88.7015   13.8787 C.2     1  UNL1        0.3752
      7 N          63.8297   87.6571   12.8847 N.2     1  UNL1       -0.0347
      8 C          63.5194   86.3975   13.6380 C.2     1  UNL1        0.2191
      9 C          63.0633   85.0428   13.1834 C.3     1  UNL1        0.1226
     10 C          64.6419   90.1123   13.5610 C.ar    1  UNL1        0.0884
     11 C          64.0736   90.7985   12.3543 C.ar    1  UNL1        0.0077
     12 C          64.4720   92.2093   12.0365 C.ar    1  UNL1        0.0002
     13 C          65.4388   92.9338   12.9255 C.ar    1  UNL1        0.0039
     14 C          66.0071   92.2477   14.1322 C.ar    1  UNL1        0.0717
     15 C          65.6087   90.8369   14.4500 C.ar    1  UNL1        0.0115
     16 C          66.9739   92.9724   15.0213 C.3     1  UNL1        0.4186
     17 F          67.9406   93.6970   15.9102 F       1  UNL1       -0.1659
     18 F          67.3974   91.6664   15.6253 F       1  UNL1       -0.1659
     19 F          66.5503   94.2784   14.4172 F       1  UNL1       -0.1659
     20 S          62.3732   82.5992   13.7337 S.O2    1  UNL1        0.0054
     21 O          62.4417   83.0551   12.3063 O.2     1  UNL1       -0.1689
     22 O          62.3046   82.1434   15.1611 O.2     1  UNL1       -0.1689
     23 C          61.9171   81.2445   13.2792 C.3     1  UNL1        0.1556
     24 C          59.6209   80.3619   14.1149 C.3     1  UNL1        0.0019
     25 C          61.1183   80.3732   14.2025 C.3     1  UNL1        0.0257
@<TRIPOS>BOND
     1    24    25    1
     2    25    23    1
     3    23    20    1
     4    20    21    2
     5    20    22    2
     6    20     1    1
     7     1     2    2
     8     2     3    1
     9     3     4    2
    10     4     5    1
    11     5     6    2
    12     6    10    1
    13    10    11   ar
    14    11    12   ar
    15    12    13   ar
    16    13    14   ar
    17    14    16    1
    18    16    17    1
    19    16    18    1
    20    16    19    1
    21    14    15   ar
    22     6     7    1
    23     7     8    2
    24     8     9    1
    25     9     1    1
    26     8     4    1
    27    15    10   ar
@<TRIPOS>MOLECULE
*****
 25 27 0 0 0
SMALL
GASTEIGER

@<TRIPOS>ATOM
      1 C          62.8732   85.1527   13.5492 C.2     1  UNL1        0.0919
      2 C          62.2519   85.6401   12.2739 C.2     1  UNL1        0.0183
      3 C          62.4875   87.0487   11.8153 C.2     1  UNL1        0.0511
      4 C          63.3444   87.9700   12.6320 C.2     1  UNL1        0.2322
      5 N          63.7523   89.3999   12.4345 N.2     1  UNL1       -0.0308
      6 C          64.6257   89.7963   13.5878 C.2     1  UNL1        0.3752
      7 N          64.7576   88.6113   14.4981 N.2     1  UNL1       -0.0347
      8 C          63.9657   87.4826   13.9073 C.2     1  UNL1        0.2191
      9 C          63.7301   86.0740   14.3659 C.3     1  UNL1        0.1226
     10 C          65.2564   91.1415   13.7946 C.ar    1  UNL1        0.0884
     11 C          65.6348   91.5881   15.1756 C.ar    1  UNL1        0.0077
     12 C          66.2655   92.9332   15.3824 C.ar    1  UNL1        0.0002
     13 C          66.5179   93.8317   14.2081 C.ar    1  UNL1        0.0039
     14 C          66.1394   93.3851   12.8270 C.ar    1  UNL1        0.0717
     15 C          65.5087   92.0399   12.6203 C.ar    1  UNL1        0.0115
     16 C          66.3918   94.2836   11.6527 C.3     1  UNL1        0.4186
     17 F          66.6441   95.1822   10.4785 F       1  UNL1       -0.1659
     18 F          66.6924   93.0861   10.8009 F       1  UNL1       -0.1659
     19 F          66.0912   95.4812   12.5045 F       1  UNL1       -0.1659
     20 S          62.6376   83.7441   14.0078 S.O2    1  UNL1        0.0054
     21 O          62.7942   83.2587   12.5972 O.2     1  UNL1       -0.1689
     22 O          62.4811   84.2296   15.4184 O.2     1  UNL1       -0.1689
     23 C          62.4021   82.3355   14.4664 C.3     1  UNL1        0.1556
     24 C          62.3226   79.9988   13.3337 C.3     1  UNL1        0.0019
     25 C          61.7219   81.3548   13.5579 C.3     1  UNL1        0.0257
@<TRIPOS>BOND
     1    24    25    1
     2    25    23    1
     3    23    20    1
     4    20    21    2
     5    20    22    2
     6    20     1    1
     7     1     2    2
     8     2     3    1
     9     3     4    2
    10     4     5    1
    11     5     6    2
    12     6    10    1
    13    10    11   ar
    14    11    12   ar
    15    12    13   ar
    16    13    14   ar
    17    14    16    1
    18    16    17    1
    19    16    18    1
    20    16    19    1
    21    14    15   ar
    22     6     7    1
    23     7     8    2
    24     8     9    1
    25     9     1    1
    26     8     4    1
    27    15    10   ar
