@<TRIPOS>MOLECULE
*****
 20 21 0 0 0
SMALL
GASTEIGER

@<TRIPOS>ATOM
      1 C          66.3013   94.1856   12.7932 C.2     1  UNL1        0.4051
      2 O          66.8623   95.2109   11.8530 O.2     1  UNL1       -0.2262
      3 N          65.4726   93.0541   12.2615 N.am    1  UNL1       -0.2419
      4 C          65.1224   92.8183   10.8221 C.3     1  UNL1        0.1014
      5 C          64.2819   91.5782   10.7467 C.3     1  UNL1        0.0459
      6 C          64.1126   91.0476   12.1395 C.2     1  UNL1       -0.0144
      7 C          63.3426   89.8203   12.5279 C.2     1  UNL1        0.0428
      8 C          64.8485   91.9598   13.0756 C.3     1  UNL1        0.1199
      9 C          62.6543   89.0024   11.4755 C.1     1  UNL1       -0.0582
     10 C          61.9661   88.1846   10.4232 C.1     1  UNL1       -0.0405
     11 C          61.2778   87.3667    9.3708 C.ar    1  UNL1        0.1224
     12 C          59.8038   87.5253    9.1425 C.ar    1  UNL1        0.0276
     13 C          59.1157   86.7075    8.0901 C.ar    1  UNL1        0.0034
     14 C          59.9014   85.7309    7.2662 C.ar    1  UNL1        0.0148
     15 C          61.3754   85.5723    7.4945 C.ar    1  UNL1        0.0600
     16 C          62.1612   84.5957    6.6706 C.3     1  UNL1        0.0521
     17 N          62.0636   86.3901    8.5469 N.ar    1  UNL1       -0.2414
     18 O          66.5691   94.2919   14.2653 O.3     1  UNL1       -0.4345
     19 C          67.2665   92.5050   16.0177 C.3     1  UNL1        0.0513
     20 C          67.6264   93.4372   14.8989 C.3     1  UNL1        0.2102
@<TRIPOS>BOND
     1    19    20    1
     2    20    18    1
     3    18     1    1
     4     1     2    2
     5     1     3   am
     6     3     4    1
     7     4     5    1
     8     5     6    1
     9     6     7    2
    10     7     9    1
    11     9    10    3
    12    10    11    1
    13    11    12   ar
    14    12    13   ar
    15    13    14   ar
    16    14    15   ar
    17    15    16    1
    18    15    17   ar
    19     6     8    1
    20     8     3    1
    21    17    11   ar
@<TRIPOS>MOLECULE
*****
 20 21 0 0 0
SMALL
GASTEIGER

@<TRIPOS>ATOM
      1 C          66.4247   93.1951   14.6244 C.2     1  UNL1        0.4051
      2 O          66.7978   94.5505   14.1014 O.2     1  UNL1       -0.2262
      3 N          65.5499   92.2908   13.8079 N.am    1  UNL1       -0.2419
      4 C          64.9754   92.6031   12.4579 C.3     1  UNL1        0.1014
      5 C          64.1663   91.4208   12.0135 C.3     1  UNL1        0.0459
      6 C          64.2407   90.3777   13.0890 C.2     1  UNL1       -0.0144
      7 C          63.5766   89.0330   13.0605 C.2     1  UNL1        0.0428
      8 C          65.0958   90.9154   14.1979 C.3     1  UNL1        0.1199
      9 C          62.7471   88.6312   11.8770 C.1     1  UNL1       -0.0582
     10 C          61.9176   88.2293   10.6936 C.1     1  UNL1       -0.0405
     11 C          61.0881   87.8275    9.5102 C.ar    1  UNL1        0.1224
     12 C          60.8881   86.3751    9.1929 C.ar    1  UNL1        0.0276
     13 C          60.0586   85.9734    8.0095 C.ar    1  UNL1        0.0034
     14 C          59.4291   87.0239    7.1434 C.ar    1  UNL1        0.0148
     15 C          59.6291   88.4762    7.4607 C.ar    1  UNL1        0.0600
     16 C          58.9996   89.5268    6.5946 C.3     1  UNL1        0.0521
     17 N          60.4586   88.8780    8.6441 N.ar    1  UNL1       -0.2414
     18 O          66.9266   92.7439   15.9640 O.3     1  UNL1       -0.4345
     19 C          69.3167   92.4142   15.0003 C.3     1  UNL1        0.0513
     20 C          68.3941   92.5191   16.1784 C.3     1  UNL1        0.2102
@<TRIPOS>BOND
     1    19    20    1
     2    20    18    1
     3    18     1    1
     4     1     2    2
     5     1     3   am
     6     3     4    1
     7     4     5    1
     8     5     6    1
     9     6     7    2
    10     7     9    1
    11     9    10    3
    12    10    11    1
    13    11    12   ar
    14    12    13   ar
    15    13    14   ar
    16    14    15   ar
    17    15    16    1
    18    15    17   ar
    19     6     8    1
    20     8     3    1
    21    17    11   ar
@<TRIPOS>MOLECULE
*****
 20 21 0 0 0
SMALL
GASTEIGER

@<TRIPOS>ATOM
      1 C          64.4852   91.6023   13.4402 C.2     1  UNL1        0.4051
      2 O          64.0586   92.3141   12.1907 O.2     1  UNL1       -0.2262
      3 N          64.2468   90.1282   13.5822 N.am    1  UNL1       -0.2419
      4 C          63.5966   89.2382   12.5647 C.3     1  UNL1        0.1014
      5 C          63.5646   87.8452   13.1203 C.3     1  UNL1        0.0459
      6 C          64.1949   87.8744   14.4812 C.2     1  UNL1       -0.0144
      7 C          64.3724   86.6989   15.3959 C.2     1  UNL1        0.0428
      8 C          64.6165   89.2853   14.7666 C.3     1  UNL1        0.1199
      9 C          63.8982   85.3404   14.9721 C.1     1  UNL1       -0.0582
     10 C          63.4239   83.9819   14.5483 C.1     1  UNL1       -0.0405
     11 C          62.9497   82.6234   14.1244 C.ar    1  UNL1        0.1224
     12 C          63.8859   81.6891   13.4170 C.ar    1  UNL1        0.0276
     13 C          63.4116   80.3307   12.9933 C.ar    1  UNL1        0.0034
     14 C          62.0011   79.9065   13.2769 C.ar    1  UNL1        0.0148
     15 C          61.0648   80.8408   13.9843 C.ar    1  UNL1        0.0600
     16 C          59.6543   80.4167   14.2679 C.3     1  UNL1        0.0521
     17 N          61.5391   82.1993   14.4081 N.ar    1  UNL1       -0.2414
     18 O          65.1504   92.3645   14.5477 O.3     1  UNL1       -0.4345
     19 C          67.6106   92.0227   15.3096 C.3     1  UNL1        0.0513
     20 C          66.6036   92.7216   14.4450 C.3     1  UNL1        0.2102
@<TRIPOS>BOND
     1    19    20    1
     2    20    18    1
     3    18     1    1
     4     1     2    2
     5     1     3   am
     6     3     4    1
     7     4     5    1
     8     5     6    1
     9     6     7    2
    10     7     9    1
    11     9    10    3
    12    10    11    1
    13    11    12   ar
    14    12    13   ar
    15    13    14   ar
    16    14    15   ar
    17    15    16    1
    18    15    17   ar
    19     6     8    1
    20     8     3    1
    21    17    11   ar
@<TRIPOS>MOLECULE
*****
 20 21 0 0 0
SMALL
GASTEIGER

@<TRIPOS>ATOM
      1 C          59.7115   87.7621    8.0170 C.2     1  UNL1        0.4051
      2 O          59.0605   88.7581    7.1037 O.2     1  UNL1       -0.2262
      3 N          60.6090   88.2331    9.1227 N.am    1  UNL1       -0.2419
      4 C          60.9476   89.6604    9.4358 C.3     1  UNL1        0.1014
      5 C          61.8734   89.6690   10.6160 C.3     1  UNL1        0.0459
      6 C          62.1070   88.2469   11.0323 C.2     1  UNL1       -0.0144
      7 C          62.9704   87.7922   12.1714 C.2     1  UNL1        0.0428
      8 C          61.3256   87.3595   10.1093 C.3     1  UNL1        0.1199
      9 C          63.6954   88.8009   13.0122 C.1     1  UNL1       -0.0582
     10 C          64.4202   89.8097   13.8530 C.1     1  UNL1       -0.0405
     11 C          65.1452   90.8185   14.6938 C.ar    1  UNL1        0.1224
     12 C          64.4398   91.4896   15.8348 C.ar    1  UNL1        0.0276
     13 C          65.1647   92.4984   16.6755 C.ar    1  UNL1        0.0034
     14 C          66.5951   92.8359   16.3753 C.ar    1  UNL1        0.0148
     15 C          67.3005   92.1648   15.2343 C.ar    1  UNL1        0.0600
     16 C          68.7308   92.5024   14.9340 C.3     1  UNL1        0.0521
     17 N          66.5755   91.1561   14.3936 N.ar    1  UNL1       -0.2414
     18 O          59.4651   86.2950    7.8246 O.3     1  UNL1       -0.4345
     19 C          61.8190   85.2430    7.5048 C.3     1  UNL1        0.0513
     20 C          60.4215   85.4741    7.0114 C.3     1  UNL1        0.2102
@<TRIPOS>BOND
     1    19    20    1
     2    20    18    1
     3    18     1    1
     4     1     2    2
     5     1     3   am
     6     3     4    1
     7     4     5    1
     8     5     6    1
     9     6     7    2
    10     7     9    1
    11     9    10    3
    12    10    11    1
    13    11    12   ar
    14    12    13   ar
    15    13    14   ar
    16    14    15   ar
    17    15    16    1
    18    15    17   ar
    19     6     8    1
    20     8     3    1
    21    17    11   ar
@<TRIPOS>MOLECULE
*****
 20 21 0 0 0
SMALL
GASTEIGER

@<TRIPOS>ATOM
      1 C          63.2435   81.3409   13.2005 C.2     1  UNL1        0.4051
      2 O          63.7758   80.3418   14.1845 O.2     1  UNL1       -0.2262
      3 N          63.4690   82.8069   13.4238 N.am    1  UNL1       -0.2419
      4 C          64.2041   83.4200   14.5787 C.3     1  UNL1        0.1014
      5 C          64.1884   84.9093   14.4002 C.3     1  UNL1        0.0459
      6 C          63.4435   85.2166   13.1349 C.2     1  UNL1       -0.0144
      7 C          63.1881   86.5833   12.5719 C.2     1  UNL1        0.0428
      8 C          62.9989   83.9173   12.5315 C.3     1  UNL1        0.1199
      9 C          63.6971   87.7976   13.2906 C.1     1  UNL1       -0.0582
     10 C          64.2060   89.0119   14.0093 C.1     1  UNL1       -0.0405
     11 C          64.7150   90.2262   14.7280 C.ar    1  UNL1        0.1224
     12 C          63.9070   90.8364   15.8346 C.ar    1  UNL1        0.0276
     13 C          64.4160   92.0506   16.5533 C.ar    1  UNL1        0.0034
     14 C          65.7330   92.6547   16.1652 C.ar    1  UNL1        0.0148
     15 C          66.5410   92.0446   15.0585 C.ar    1  UNL1        0.0600
     16 C          67.8580   92.6487   14.6705 C.3     1  UNL1        0.0521
     17 N          66.0320   90.8303   14.3399 N.ar    1  UNL1       -0.2414
     18 O          62.4857   80.8741   11.9931 O.3     1  UNL1       -0.4345
     19 C          62.8270   79.5928    9.7588 C.3     1  UNL1        0.0513
     20 C          63.1907   80.7210   10.6780 C.3     1  UNL1        0.2102
@<TRIPOS>BOND
     1    19    20    1
     2    20    18    1
     3    18     1    1
     4     1     2    2
     5     1     3   am
     6     3     4    1
     7     4     5    1
     8     5     6    1
     9     6     7    2
    10     7     9    1
    11     9    10    3
    12    10    11    1
    13    11    12   ar
    14    12    13   ar
    15    13    14   ar
    16    14    15   ar
    17    15    16    1
    18    15    17   ar
    19     6     8    1
    20     8     3    1
    21    17    11   ar
@<TRIPOS>MOLECULE
*****
 20 21 0 0 0
SMALL
GASTEIGER

@<TRIPOS>ATOM
      1 C          62.4854   81.9416   13.1338 C.2     1  UNL1        0.4051
      2 O          62.4010   81.3624   11.7527 O.2     1  UNL1       -0.2262
      3 N          62.9302   83.3611   13.3258 N.am    1  UNL1       -0.2419
      4 C          63.3206   84.3175   12.2382 C.3     1  UNL1        0.1014
      5 C          63.6944   85.6211   12.8793 C.3     1  UNL1        0.0459
      6 C          63.5350   85.4703   14.3633 C.2     1  UNL1       -0.0144
      7 C          63.8012   86.5302   15.3908 C.2     1  UNL1        0.0428
      8 C          63.0627   84.0736   14.6392 C.3     1  UNL1        0.1199
      9 C          64.2724   87.8884   14.9626 C.1     1  UNL1       -0.0582
     10 C          64.7435   89.2466   14.5345 C.1     1  UNL1       -0.0405
     11 C          65.2147   90.6048   14.1063 C.ar    1  UNL1        0.1224
     12 C          64.6941   91.2140   12.8383 C.ar    1  UNL1        0.0276
     13 C          65.1653   92.5722   12.4102 C.ar    1  UNL1        0.0034
     14 C          66.1571   93.3212   13.2501 C.ar    1  UNL1        0.0148
     15 C          66.6777   92.7120   14.5181 C.ar    1  UNL1        0.0600
     16 C          67.6695   93.4610   15.3579 C.3     1  UNL1        0.0521
     17 N          66.2065   91.3538   14.9462 N.ar    1  UNL1       -0.2414
     18 O          62.1250   81.1012   14.3229 O.3     1  UNL1       -0.4345
     19 C          59.6365   80.3658   14.1942 C.3     1  UNL1        0.0513
     20 C          61.0956   80.0181   14.1915 C.3     1  UNL1        0.2102
@<TRIPOS>BOND
     1    19    20    1
     2    20    18    1
     3    18     1    1
     4     1     2    2
     5     1     3   am
     6     3     4    1
     7     4     5    1
     8     5     6    1
     9     6     7    2
    10     7     9    1
    11     9    10    3
    12    10    11    1
    13    11    12   ar
    14    12    13   ar
    15    13    14   ar
    16    14    15   ar
    17    15    16    1
    18    15    17   ar
    19     6     8    1
    20     8     3    1
    21    17    11   ar
@<TRIPOS>MOLECULE
*****
 20 21 0 0 0
SMALL
GASTEIGER

@<TRIPOS>ATOM
      1 C          62.4592   82.1293   13.1668 C.2     1  UNL1        0.4051
      2 O          62.3558   81.5511   11.7866 O.2     1  UNL1       -0.2262
      3 N          62.9123   83.5468   13.3542 N.am    1  UNL1       -0.2419
      4 C          63.2936   84.5021   12.2624 C.3     1  UNL1        0.1014
      5 C          63.6807   85.8038   12.8996 C.3     1  UNL1        0.0459
      6 C          63.5385   85.6529   14.3853 C.2     1  UNL1       -0.0144
      7 C          63.8215   86.7110   15.4100 C.2     1  UNL1        0.0428
      8 C          63.0636   84.2580   14.6662 C.3     1  UNL1        0.1199
      9 C          64.2933   88.0675   14.9769 C.1     1  UNL1       -0.0582
     10 C          64.7650   89.4239   14.5437 C.1     1  UNL1       -0.0405
     11 C          65.2368   90.7803   14.1106 C.ar    1  UNL1        0.1224
     12 C          65.9424   91.6756   15.0855 C.ar    1  UNL1        0.0276
     13 C          66.4141   93.0320   14.6523 C.ar    1  UNL1        0.0034
     14 C          66.1803   93.4930   13.2442 C.ar    1  UNL1        0.0148
     15 C          65.4747   92.5977   12.2693 C.ar    1  UNL1        0.0600
     16 C          65.2409   93.0588   10.8612 C.3     1  UNL1        0.0521
     17 N          65.0030   91.2414   12.7024 N.ar    1  UNL1       -0.2414
     18 O          62.1095   81.2898   14.3597 O.3     1  UNL1       -0.4345
     19 C          59.6830   80.3698   14.2338 C.3     1  UNL1        0.0513
     20 C          61.1643   80.1344   14.2127 C.3     1  UNL1        0.2102
@<TRIPOS>BOND
     1    19    20    1
     2    20    18    1
     3    18     1    1
     4     1     2    2
     5     1     3   am
     6     3     4    1
     7     4     5    1
     8     5     6    1
     9     6     7    2
    10     7     9    1
    11     9    10    3
    12    10    11    1
    13    11    12   ar
    14    12    13   ar
    15    13    14   ar
    16    14    15   ar
    17    15    16    1
    18    15    17   ar
    19     6     8    1
    20     8     3    1
    21    17    11   ar
@<TRIPOS>MOLECULE
*****
 20 21 0 0 0
SMALL
GASTEIGER

@<TRIPOS>ATOM
      1 C          63.1372   82.6578   14.1343 C.2     1  UNL1        0.4051
      2 O          63.8840   81.8121   15.1227 O.2     1  UNL1       -0.2262
      3 N          63.4552   84.1180   14.0051 N.am    1  UNL1       -0.2419
      4 C          64.4884   84.8682   14.7923 C.3     1  UNL1        0.1014
      5 C          64.4677   86.2983   14.3398 C.3     1  UNL1        0.0459
      6 C          63.4216   86.4317   13.2730 C.2     1  UNL1       -0.0144
      7 C          63.0641   87.6915   12.5414 C.2     1  UNL1        0.0428
      8 C          62.7959   85.0843   13.0661 C.3     1  UNL1        0.1199
      9 C          63.7802   88.9712   12.8574 C.1     1  UNL1       -0.0582
     10 C          64.4962   90.2508   13.1734 C.1     1  UNL1       -0.0405
     11 C          65.2122   91.5305   13.4894 C.ar    1  UNL1        0.1224
     12 C          65.7490   91.7685   14.8696 C.ar    1  UNL1        0.0276
     13 C          66.4650   93.0481   15.1855 C.ar    1  UNL1        0.0034
     14 C          66.6442   94.0898   14.1212 C.ar    1  UNL1        0.0148
     15 C          66.1074   93.8518   12.7409 C.ar    1  UNL1        0.0600
     16 C          66.2867   94.8934   11.6766 C.3     1  UNL1        0.0521
     17 N          65.3914   92.5722   12.4250 N.ar    1  UNL1       -0.2414
     18 O          62.0723   82.0433   13.2749 O.3     1  UNL1       -0.4345
     19 C          63.3088   81.9097   10.9939 C.3     1  UNL1        0.0513
     20 C          62.4527   81.2707   12.0468 C.3     1  UNL1        0.2102
@<TRIPOS>BOND
     1    19    20    1
     2    20    18    1
     3    18     1    1
     4     1     2    2
     5     1     3   am
     6     3     4    1
     7     4     5    1
     8     5     6    1
     9     6     7    2
    10     7     9    1
    11     9    10    3
    12    10    11    1
    13    11    12   ar
    14    12    13   ar
    15    13    14   ar
    16    14    15   ar
    17    15    16    1
    18    15    17   ar
    19     6     8    1
    20     8     3    1
    21    17    11   ar
@<TRIPOS>MOLECULE
*****
 20 21 0 0 0
SMALL
GASTEIGER

@<TRIPOS>ATOM
      1 C          61.8150   94.5084    0.4423 C.2     1  UNL1        0.4051
      2 O          63.2252   94.5093   -0.0690 O.2     1  UNL1       -0.2262
      3 N          61.4324   93.6161    1.5856 N.am    1  UNL1       -0.2419
      4 C          62.3461   92.6757    2.3142 C.3     1  UNL1        0.1014
      5 C          61.5473   91.9859    3.3801 C.3     1  UNL1        0.0459
      6 C          60.1398   92.5000    3.3103 C.2     1  UNL1       -0.0144
      7 C          59.0030   92.0803    4.1943 C.2     1  UNL1        0.0428
      8 C          60.0688   93.5075    2.2013 C.3     1  UNL1        0.1199
      9 C          59.2259   91.0559    5.2672 C.1     1  UNL1       -0.0582
     10 C          59.4489   90.0317    6.3401 C.1     1  UNL1       -0.0405
     11 C          59.6719   89.0074    7.4131 C.ar    1  UNL1        0.1224
     12 C          59.3217   87.5705    7.1627 C.ar    1  UNL1        0.0276
     13 C          59.5446   86.5463    8.2356 C.ar    1  UNL1        0.0034
     14 C          60.1177   86.9590    9.5590 C.ar    1  UNL1        0.0148
     15 C          60.4679   88.3958    9.8094 C.ar    1  UNL1        0.0600
     16 C          61.0410   88.8085   11.1327 C.3     1  UNL1        0.0521
     17 N          60.2450   89.4200    8.7364 N.ar    1  UNL1       -0.2414
     18 O          60.7875   95.3997   -0.1899 O.3     1  UNL1       -0.4345
     19 C          60.1486   93.4995   -1.8424 C.3     1  UNL1        0.0513
     20 C          59.9976   94.9149   -1.3692 C.3     1  UNL1        0.2102
@<TRIPOS>BOND
     1    19    20    1
     2    20    18    1
     3    18     1    1
     4     1     2    2
     5     1     3   am
     6     3     4    1
     7     4     5    1
     8     5     6    1
     9     6     7    2
    10     7     9    1
    11     9    10    3
    12    10    11    1
    13    11    12   ar
    14    12    13   ar
    15    13    14   ar
    16    14    15   ar
    17    15    16    1
    18    15    17   ar
    19     6     8    1
    20     8     3    1
    21    17    11   ar
