@<TRIPOS>MOLECULE
*****
 36 39 0 0 0
SMALL
GASTEIGER

@<TRIPOS>ATOM
      1 N          61.6611   87.4444   11.3056 N.ar    1  UNL1       -0.2459
      2 C          61.9206   88.3673   10.1520 C.ar    1  UNL1        0.1116
      3 C          60.5958   88.8186    9.6123 C.ar    1  UNL1        0.0908
      4 C          59.5175   88.1745   10.4324 C.ar    1  UNL1        0.1363
      5 N          60.1760   87.3253   11.4790 N.ar    1  UNL1       -0.1661
      6 N          60.3861   89.7503    8.4556 N.am    1  UNL1       -0.2762
      7 C          59.5310   89.3278    7.2979 C.2     1  UNL1        0.2754
      8 O          58.8857   87.9737    7.2968 O.2     1  UNL1       -0.2675
      9 H          60.8096   90.6390    8.4564 H       1  UNL1        0.1553
     10 C          59.3213   90.2595    6.1412 C.ar    1  UNL1        0.1872
     11 N          57.9976   90.7421    5.6265 N.ar    1  UNL1       -0.1361
     12 N          58.2568   91.6531    4.4633 N.ar    1  UNL1       -0.1391
     13 C          59.7406   91.7335    4.2591 C.ar    1  UNL1        0.1529
     14 S          60.3986   90.8722    5.2961 S.2     1  UNL1       -0.0394
     15 C          60.4432   92.5346    3.2032 C.ar    1  UNL1        0.1260
     16 C          61.8983   92.2976    2.9262 C.ar    1  UNL1        0.1201
     17 N          62.6008   93.0987    1.8704 N.ar    1  UNL1       -0.2390
     18 C          61.8483   94.1367    1.0916 C.ar    1  UNL1        0.1195
     19 C          60.3933   94.3736    1.3687 C.ar    1  UNL1        0.1195
     20 N          59.6908   93.5725    2.4245 N.ar    1  UNL1       -0.2385
     21 C          63.8056   87.5615   12.7677 C.3     1  UNL1        0.0312
     22 C          62.7038   86.7606   12.1395 C.3     1  UNL1        0.1274
     23 C          62.6446   85.2759   12.3453 C.ar    1  UNL1        0.0038
     24 C          62.5218   84.7151   13.7310 C.ar    1  UNL1       -0.0025
     25 C          62.4626   83.2305   13.9367 C.ar    1  UNL1        0.0036
     26 C          62.5262   82.3067   12.7567 C.ar    1  UNL1        0.0714
     27 C          62.6490   82.8675   11.3709 C.ar    1  UNL1        0.0074
     28 C          62.7082   84.3521   11.1652 C.ar    1  UNL1        0.0692
     29 C          62.4671   80.8220   12.9624 C.3     1  UNL1        0.4186
     30 F          62.4079   79.3374   13.1681 F       1  UNL1       -0.1659
     31 F          62.0642   81.0360   14.3913 F       1  UNL1       -0.1659
     32 F          62.8699   80.6080   11.5335 F       1  UNL1       -0.1659
     33 C          62.8310   84.9130    9.7794 C.3     1  UNL1        0.4183
     34 F          62.9538   85.4739    8.3937 F       1  UNL1       -0.1659
     35 F          61.3661   85.2354    9.7801 F       1  UNL1       -0.1659
     36 F          64.2959   84.5907    9.7787 F       1  UNL1       -0.1659
@<TRIPOS>BOND
     1    21    22    1
     2    22    23    1
     3    23    24   ar
     4    24    25   ar
     5    25    26   ar
     6    26    29    1
     7    29    30    1
     8    29    31    1
     9    29    32    1
    10    26    27   ar
    11    27    28   ar
    12    28    33    1
    13    33    34    1
    14    33    35    1
    15    33    36    1
    16    22     1    1
    17     1     2   ar
    18     2     3   ar
    19     3     6    1
    20     6     7   am
    21     7     8    2
    22     7    10    1
    23    10    11   ar
    24    11    12   ar
    25    12    13   ar
    26    13    15    1
    27    15    16   ar
    28    16    17   ar
    29    17    18   ar
    30    18    19   ar
    31    19    20   ar
    32    13    14   ar
    33     3     4   ar
    34     4     5   ar
    35    28    23   ar
    36     5     1   ar
    37    14    10   ar
    38    20    15   ar
    39     6     9    1
@<TRIPOS>MOLECULE
*****
 36 39 0 0 0
SMALL
GASTEIGER

@<TRIPOS>ATOM
      1 N          64.4796   90.4392   15.4115 N.ar    1  UNL1       -0.2459
      2 C          64.6169   89.1965   14.5829 C.ar    1  UNL1        0.1116
      3 C          63.7197   88.1470   15.1691 C.ar    1  UNL1        0.0908
      4 C          63.0278   88.7412   16.3600 C.ar    1  UNL1        0.1363
      5 N          63.4975   90.1578   16.5098 N.ar    1  UNL1       -0.1661
      6 N          63.5450   86.7488   14.6546 N.am    1  UNL1       -0.2762
      7 C          63.3686   85.6121   15.6172 C.2     1  UNL1        0.2754
      8 O          63.3670   85.8735   17.0943 O.2     1  UNL1       -0.2675
      9 H          63.5460   86.5773   13.6852 H       1  UNL1        0.1553
     10 C          63.1939   84.2139   15.1028 C.ar    1  UNL1        0.1872
     11 N          62.8948   83.0003   15.9320 N.ar    1  UNL1       -0.1361
     12 N          62.8037   81.8203   15.0104 N.ar    1  UNL1       -0.1391
     13 C          63.0465   82.3046   13.6117 C.ar    1  UNL1        0.1529
     14 S          63.2877   83.7841   13.6687 S.2     1  UNL1       -0.0394
     15 C          63.0479   81.4582   12.3733 C.ar    1  UNL1        0.1260
     16 C          63.4494   82.0554   11.0571 C.ar    1  UNL1        0.1201
     17 N          63.4508   81.2090    9.8187 N.ar    1  UNL1       -0.2390
     18 C          63.0506   79.7654    9.8965 C.ar    1  UNL1        0.1195
     19 C          62.6491   79.1682   11.2127 C.ar    1  UNL1        0.1195
     20 N          62.6478   80.0147   12.4510 N.ar    1  UNL1       -0.2385
     21 C          65.3253   92.7304   16.2977 C.3     1  UNL1        0.0312
     22 C          65.1982   91.7358   15.1821 C.3     1  UNL1        0.1274
     23 C          65.7899   92.0376   13.8371 C.ar    1  UNL1        0.0038
     24 C          64.9123   92.0659   12.6210 C.ar    1  UNL1       -0.0025
     25 C          65.5039   92.3677   11.2761 C.ar    1  UNL1        0.0036
     26 C          66.9732   92.6412   11.1473 C.ar    1  UNL1        0.0714
     27 C          67.8507   92.6129   12.3635 C.ar    1  UNL1        0.0074
     28 C          67.2591   92.3110   13.7084 C.ar    1  UNL1        0.0692
     29 C          67.5648   92.9430    9.8023 C.3     1  UNL1        0.4186
     30 F          68.1564   93.2448    8.4574 F       1  UNL1       -0.1659
     31 F          67.1329   94.3735    9.9333 F       1  UNL1       -0.1659
     32 F          67.9967   91.5126    9.6714 F       1  UNL1       -0.1659
     33 C          68.1367   92.2827   14.9246 C.3     1  UNL1        0.4183
     34 F          69.0142   92.2543   16.1407 F       1  UNL1       -0.1659
     35 F          68.0342   90.7867   14.9636 F       1  UNL1       -0.1659
     36 F          68.2392   93.7786   14.8856 F       1  UNL1       -0.1659
@<TRIPOS>BOND
     1    21    22    1
     2    22    23    1
     3    23    24   ar
     4    24    25   ar
     5    25    26   ar
     6    26    29    1
     7    29    30    1
     8    29    31    1
     9    29    32    1
    10    26    27   ar
    11    27    28   ar
    12    28    33    1
    13    33    34    1
    14    33    35    1
    15    33    36    1
    16    22     1    1
    17     1     2   ar
    18     2     3   ar
    19     3     6    1
    20     6     7   am
    21     7     8    2
    22     7    10    1
    23    10    11   ar
    24    11    12   ar
    25    12    13   ar
    26    13    15    1
    27    15    16   ar
    28    16    17   ar
    29    17    18   ar
    30    18    19   ar
    31    19    20   ar
    32    13    14   ar
    33     3     4   ar
    34     4     5   ar
    35    28    23   ar
    36     5     1   ar
    37    14    10   ar
    38    20    15   ar
    39     6     9    1
@<TRIPOS>MOLECULE
*****
 36 39 0 0 0
SMALL
GASTEIGER

@<TRIPOS>ATOM
      1 N          61.7347   87.4103   11.3578 N.ar    1  UNL1       -0.2459
      2 C          61.9713   88.2345   10.1271 C.ar    1  UNL1        0.1116
      3 C          60.6678   88.8634    9.7327 C.ar    1  UNL1        0.0908
      4 C          59.6256   88.4278   10.7196 C.ar    1  UNL1        0.1363
      5 N          60.2850   87.5297   11.7240 N.ar    1  UNL1       -0.1661
      6 N          60.4456   89.7689    8.5576 N.am    1  UNL1       -0.2762
      7 C          59.5854   89.3171    7.4149 C.2     1  UNL1        0.2754
      8 O          58.9474   87.9600    7.4471 O.2     1  UNL1       -0.2675
      9 H          60.8644   90.6596    8.5365 H       1  UNL1        0.1553
     10 C          59.3632   90.2226    6.2398 C.ar    1  UNL1        0.1872
     11 N          58.0327   90.6628    5.7051 N.ar    1  UNL1       -0.1361
     12 N          58.2798   91.5591    4.5280 N.ar    1  UNL1       -0.1391
     13 C          59.7630   91.6728    4.3352 C.ar    1  UNL1        0.1529
     14 S          60.4326   90.8468    5.3932 S.2     1  UNL1       -0.0394
     15 C          60.4550   92.4722    3.2712 C.ar    1  UNL1        0.1260
     16 C          61.9074   92.2350    2.9803 C.ar    1  UNL1        0.1201
     17 N          62.5994   93.0344    1.9163 N.ar    1  UNL1       -0.2390
     18 C          61.8392   94.0710    1.1432 C.ar    1  UNL1        0.1195
     19 C          60.3869   94.3081    1.4341 C.ar    1  UNL1        0.1195
     20 N          59.6949   93.5088    2.4981 N.ar    1  UNL1       -0.2385
     21 C          63.7713   87.2981   12.9670 C.3     1  UNL1        0.0312
     22 C          62.7666   86.6075   12.0932 C.3     1  UNL1        0.1274
     23 C          62.7938   85.1141   11.9547 C.ar    1  UNL1        0.0038
     24 C          62.6297   84.4831   10.6038 C.ar    1  UNL1       -0.0025
     25 C          62.6569   82.9898   10.4654 C.ar    1  UNL1        0.0036
     26 C          62.8481   82.1275   11.6778 C.ar    1  UNL1        0.0714
     27 C          63.0122   82.7585   13.0286 C.ar    1  UNL1        0.0074
     28 C          62.9850   84.2519   13.1671 C.ar    1  UNL1        0.0692
     29 C          62.8753   80.6341   11.5393 C.3     1  UNL1        0.4186
     30 F          62.9025   79.1408   11.4008 F       1  UNL1       -0.1659
     31 F          62.6081   80.4929   13.0085 F       1  UNL1       -0.1659
     32 F          63.1425   80.7753   10.0701 F       1  UNL1       -0.1659
     33 C          63.1491   84.8830   14.5180 C.3     1  UNL1        0.4183
     34 F          63.3133   85.5141   15.8688 F       1  UNL1       -0.1659
     35 F          64.6337   84.9395   14.3112 F       1  UNL1       -0.1659
     36 F          61.6646   84.8265   14.7248 F       1  UNL1       -0.1659
@<TRIPOS>BOND
     1    21    22    1
     2    22    23    1
     3    23    24   ar
     4    24    25   ar
     5    25    26   ar
     6    26    29    1
     7    29    30    1
     8    29    31    1
     9    29    32    1
    10    26    27   ar
    11    27    28   ar
    12    28    33    1
    13    33    34    1
    14    33    35    1
    15    33    36    1
    16    22     1    1
    17     1     2   ar
    18     2     3   ar
    19     3     6    1
    20     6     7   am
    21     7     8    2
    22     7    10    1
    23    10    11   ar
    24    11    12   ar
    25    12    13   ar
    26    13    15    1
    27    15    16   ar
    28    16    17   ar
    29    17    18   ar
    30    18    19   ar
    31    19    20   ar
    32    13    14   ar
    33     3     4   ar
    34     4     5   ar
    35    28    23   ar
    36     5     1   ar
    37    14    10   ar
    38    20    15   ar
    39     6     9    1
@<TRIPOS>MOLECULE
*****
 36 39 0 0 0
SMALL
GASTEIGER

@<TRIPOS>ATOM
      1 N          63.9125   87.0408   13.5212 N.ar    1  UNL1       -0.2459
      2 C          63.0993   86.9699   12.2628 C.ar    1  UNL1        0.1116
      3 C          62.7423   88.3705   11.8620 C.ar    1  UNL1        0.0908
      4 C          63.3348   89.3072   12.8727 C.ar    1  UNL1        0.1363
      5 N          64.0580   88.4854   13.8982 N.ar    1  UNL1       -0.1661
      6 N          61.9345   88.7652   10.6612 N.am    1  UNL1       -0.2762
      7 C          60.9572   87.7970   10.0636 C.2     1  UNL1        0.2754
      8 O          60.7875   86.4340   10.6666 O.2     1  UNL1       -0.2675
      9 H          62.0459   89.6598   10.2654 H       1  UNL1        0.1553
     10 C          60.1494   88.1917    8.8628 C.ar    1  UNL1        0.1872
     11 N          58.9623   87.4544    8.3176 N.ar    1  UNL1       -0.1361
     12 N          58.4663   88.2001    7.1143 N.ar    1  UNL1       -0.1391
     13 C          59.3468   89.3981    6.9158 C.ar    1  UNL1        0.1529
     14 S          60.3871   89.3930    7.9965 S.2     1  UNL1       -0.0394
     15 C          59.2109   90.4217    5.8277 C.ar    1  UNL1        0.1260
     16 C          57.8558   90.9492    5.4592 C.ar    1  UNL1        0.1201
     17 N          57.7199   91.9727    4.3711 N.ar    1  UNL1       -0.2390
     18 C          58.9391   92.4687    3.6515 C.ar    1  UNL1        0.1195
     19 C          60.2940   91.9412    4.0200 C.ar    1  UNL1        0.1195
     20 N          60.4299   90.9177    5.1081 N.ar    1  UNL1       -0.2385
     21 C          65.6506   86.0674   15.1889 C.3     1  UNL1        0.0312
     22 C          64.4804   85.8724   14.2711 C.3     1  UNL1        0.1274
     23 C          63.8781   84.5089   14.1030 C.ar    1  UNL1        0.0038
     24 C          64.3660   83.6027   13.0118 C.ar    1  UNL1       -0.0025
     25 C          63.7637   82.2393   12.8438 C.ar    1  UNL1        0.0036
     26 C          62.6734   81.7821   13.7669 C.ar    1  UNL1        0.0714
     27 C          62.1854   82.6883   14.8581 C.ar    1  UNL1        0.0074
     28 C          62.7878   84.0517   15.0261 C.ar    1  UNL1        0.0692
     29 C          62.0710   80.4186   13.5989 C.3     1  UNL1        0.4186
     30 F          61.4688   79.0552   13.4308 F       1  UNL1       -0.1659
     31 F          60.9742   80.7854   14.5540 F       1  UNL1       -0.1659
     32 F          63.1679   80.0519   12.6437 F       1  UNL1       -0.1659
     33 C          62.2998   84.9580   16.1173 C.3     1  UNL1        0.4183
     34 F          61.8119   85.8642   17.2085 F       1  UNL1       -0.1659
     35 F          63.6251   84.8380   16.8095 F       1  UNL1       -0.1659
     36 F          60.9745   85.0780   15.4251 F       1  UNL1       -0.1659
@<TRIPOS>BOND
     1    21    22    1
     2    22    23    1
     3    23    24   ar
     4    24    25   ar
     5    25    26   ar
     6    26    29    1
     7    29    30    1
     8    29    31    1
     9    29    32    1
    10    26    27   ar
    11    27    28   ar
    12    28    33    1
    13    33    34    1
    14    33    35    1
    15    33    36    1
    16    22     1    1
    17     1     2   ar
    18     2     3   ar
    19     3     6    1
    20     6     7   am
    21     7     8    2
    22     7    10    1
    23    10    11   ar
    24    11    12   ar
    25    12    13   ar
    26    13    15    1
    27    15    16   ar
    28    16    17   ar
    29    17    18   ar
    30    18    19   ar
    31    19    20   ar
    32    13    14   ar
    33     3     4   ar
    34     4     5   ar
    35    28    23   ar
    36     5     1   ar
    37    14    10   ar
    38    20    15   ar
    39     6     9    1
@<TRIPOS>MOLECULE
*****
 36 39 0 0 0
SMALL
GASTEIGER

@<TRIPOS>ATOM
      1 N          63.7157   86.1744   13.1674 N.ar    1  UNL1       -0.2459
      2 C          62.8493   86.2779   11.9474 C.ar    1  UNL1        0.1116
      3 C          62.5919   87.7319   11.6836 C.ar    1  UNL1        0.0908
      4 C          63.2992   88.5270   12.7407 C.ar    1  UNL1        0.1363
      5 N          63.9938   87.5644   13.6577 N.ar    1  UNL1       -0.1661
      6 N          61.7712   88.2923   10.5600 N.am    1  UNL1       -0.2762
      7 C          60.8760   87.3906    9.7629 C.2     1  UNL1        0.2754
      8 O          60.8014   85.9285   10.0894 O.2     1  UNL1       -0.2675
      9 H          61.8202   89.2520   10.3458 H       1  UNL1        0.1553
     10 C          60.0553   87.9511    8.6394 C.ar    1  UNL1        0.1872
     11 N          58.7414   87.4142    8.1541 N.ar    1  UNL1       -0.1361
     12 N          58.2786   88.2781    7.0186 N.ar    1  UNL1       -0.1391
     13 C          59.3064   89.3490    6.8020 C.ar    1  UNL1        0.1529
     14 S          60.4046   89.1469    7.8038 S.2     1  UNL1       -0.0394
     15 C          59.2466   90.4318    5.7658 C.ar    1  UNL1        0.1260
     16 C          57.9255   91.0280    5.3793 C.ar    1  UNL1        0.1201
     17 N          57.8657   92.1108    4.3430 N.ar    1  UNL1       -0.2390
     18 C          59.1271   92.5975    3.6932 C.ar    1  UNL1        0.1195
     19 C          60.4481   92.0014    4.0797 C.ar    1  UNL1        0.1195
     20 N          60.5079   90.9185    5.1160 N.ar    1  UNL1       -0.2385
     21 C          65.5973   84.8471   14.3708 C.3     1  UNL1        0.0312
     22 C          64.2162   84.9039   13.7882 C.3     1  UNL1        0.1274
     23 C          63.3356   83.6901   13.8264 C.ar    1  UNL1        0.0038
     24 C          62.4818   83.4205   15.0298 C.ar    1  UNL1       -0.0025
     25 C          61.6013   82.2068   15.0680 C.ar    1  UNL1        0.0036
     26 C          61.5744   81.2627   13.9026 C.ar    1  UNL1        0.0714
     27 C          62.4282   81.5324   12.6992 C.ar    1  UNL1        0.0074
     28 C          63.3088   82.7461   12.6610 C.ar    1  UNL1        0.0692
     29 C          60.6938   80.0490   13.9408 C.3     1  UNL1        0.4186
     30 F          59.8133   78.8353   13.9790 F       1  UNL1       -0.1659
     31 F          59.5212   80.9111   14.3036 F       1  UNL1       -0.1659
     32 F          61.8664   79.1869   13.5780 F       1  UNL1       -0.1659
     33 C          64.1626   83.0157   11.4575 C.3     1  UNL1        0.4183
     34 F          65.0164   83.2854   10.2541 F       1  UNL1       -0.1659
     35 F          65.3251   82.3511   12.1334 F       1  UNL1       -0.1659
     36 F          63.0001   83.6803   10.7817 F       1  UNL1       -0.1659
@<TRIPOS>BOND
     1    21    22    1
     2    22    23    1
     3    23    24   ar
     4    24    25   ar
     5    25    26   ar
     6    26    29    1
     7    29    30    1
     8    29    31    1
     9    29    32    1
    10    26    27   ar
    11    27    28   ar
    12    28    33    1
    13    33    34    1
    14    33    35    1
    15    33    36    1
    16    22     1    1
    17     1     2   ar
    18     2     3   ar
    19     3     6    1
    20     6     7   am
    21     7     8    2
    22     7    10    1
    23    10    11   ar
    24    11    12   ar
    25    12    13   ar
    26    13    15    1
    27    15    16   ar
    28    16    17   ar
    29    17    18   ar
    30    18    19   ar
    31    19    20   ar
    32    13    14   ar
    33     3     4   ar
    34     4     5   ar
    35    28    23   ar
    36     5     1   ar
    37    14    10   ar
    38    20    15   ar
    39     6     9    1
@<TRIPOS>MOLECULE
*****
 36 39 0 0 0
SMALL
GASTEIGER

@<TRIPOS>ATOM
      1 N          61.1611   88.0330    9.8657 N.ar    1  UNL1       -0.2459
      2 C          62.2103   88.4914   10.8348 C.ar    1  UNL1        0.1116
      3 C          61.9746   89.9451   11.1198 C.ar    1  UNL1        0.0908
      4 C          60.7798   90.3852   10.3269 C.ar    1  UNL1        0.1363
      5 N          60.2770   89.2034    9.5519 N.ar    1  UNL1       -0.1661
      6 N          62.7906   90.8074   12.0368 N.am    1  UNL1       -0.2762
      7 C          63.5549   90.1858   13.1679 C.2     1  UNL1        0.2754
      8 O          63.5032   88.7021   13.3821 O.2     1  UNL1       -0.2675
      9 H          62.8245   91.7812   11.8962 H       1  UNL1        0.1553
     10 C          64.3708   91.0481   14.0849 C.ar    1  UNL1        0.1872
     11 N          63.8903   91.6866   15.3543 N.ar    1  UNL1       -0.1361
     12 N          65.0331   92.4563   15.9473 N.ar    1  UNL1       -0.1391
     13 C          66.2198   92.2935   15.0445 C.ar    1  UNL1        0.1529
     14 S          65.8105   91.4231   13.8933 S.2     1  UNL1       -0.0394
     15 C          67.5775   92.8953   15.2556 C.ar    1  UNL1        0.1260
     16 C          68.7624   92.3518   14.5135 C.ar    1  UNL1        0.1201
     17 N          70.1201   92.9536   14.7246 N.ar    1  UNL1       -0.2390
     18 C          70.2928   94.0990   15.6778 C.ar    1  UNL1        0.1195
     19 C          69.1079   94.6424   16.4198 C.ar    1  UNL1        0.1195
     20 N          67.7502   94.0406   16.2087 N.ar    1  UNL1       -0.2385
     21 C          60.1077   86.3960    8.1452 C.3     1  UNL1        0.0312
     22 C          61.0207   86.6475    9.3084 C.3     1  UNL1        0.1274
     23 C          61.7934   85.5135    9.9142 C.ar    1  UNL1        0.0038
     24 C          61.6821   85.2303   11.3830 C.ar    1  UNL1       -0.0025
     25 C          62.4547   84.0963   11.9888 C.ar    1  UNL1        0.0036
     26 C          63.3388   83.2456   11.1259 C.ar    1  UNL1        0.0714
     27 C          63.4501   83.5288    9.6571 C.ar    1  UNL1        0.0074
     28 C          62.6775   84.6628    9.0513 C.ar    1  UNL1        0.0692
     29 C          64.1115   82.1116   11.7318 C.3     1  UNL1        0.4186
     30 F          64.8841   80.9776   12.3376 F       1  UNL1       -0.1659
     31 F          64.7644   83.0666   12.6866 F       1  UNL1       -0.1659
     32 F          63.4586   81.1566   10.7770 F       1  UNL1       -0.1659
     33 C          62.7888   84.9460    7.5824 C.3     1  UNL1        0.4183
     34 F          62.9002   85.2293    6.1137 F       1  UNL1       -0.1659
     35 F          63.8432   85.9758    7.8610 F       1  UNL1       -0.1659
     36 F          61.7344   83.9162    7.3039 F       1  UNL1       -0.1659
@<TRIPOS>BOND
     1    21    22    1
     2    22    23    1
     3    23    24   ar
     4    24    25   ar
     5    25    26   ar
     6    26    29    1
     7    29    30    1
     8    29    31    1
     9    29    32    1
    10    26    27   ar
    11    27    28   ar
    12    28    33    1
    13    33    34    1
    14    33    35    1
    15    33    36    1
    16    22     1    1
    17     1     2   ar
    18     2     3   ar
    19     3     6    1
    20     6     7   am
    21     7     8    2
    22     7    10    1
    23    10    11   ar
    24    11    12   ar
    25    12    13   ar
    26    13    15    1
    27    15    16   ar
    28    16    17   ar
    29    17    18   ar
    30    18    19   ar
    31    19    20   ar
    32    13    14   ar
    33     3     4   ar
    34     4     5   ar
    35    28    23   ar
    36     5     1   ar
    37    14    10   ar
    38    20    15   ar
    39     6     9    1
@<TRIPOS>MOLECULE
*****
 36 39 0 0 0
SMALL
GASTEIGER

@<TRIPOS>ATOM
      1 N          63.2702   90.6500   11.4353 N.ar    1  UNL1       -0.2459
      2 C          63.6302   89.2119   11.6640 C.ar    1  UNL1        0.1116
      3 C          62.3664   88.4051   11.6199 C.ar    1  UNL1        0.0908
      4 C          61.2254   89.3445   11.3639 C.ar    1  UNL1        0.1363
      5 N          61.7839   90.7319   11.2498 N.ar    1  UNL1       -0.1661
      6 N          62.2621   86.9196   11.8001 N.am    1  UNL1       -0.2762
      7 C          63.0484   86.2381   12.8805 C.2     1  UNL1        0.2754
      8 O          63.9391   87.0422   13.7806 O.2     1  UNL1       -0.2675
      9 H          61.6775   86.3919   11.2093 H       1  UNL1        0.1553
     10 C          62.9441   84.7527   13.0607 C.ar    1  UNL1        0.1872
     11 N          62.8018   84.0310   14.3679 N.ar    1  UNL1       -0.1361
     12 N          62.7335   82.5603   14.0804 N.ar    1  UNL1       -0.1391
     13 C          62.8336   82.3732   12.5955 C.ar    1  UNL1        0.1529
     14 S          62.9638   83.7281   11.9652 S.2     1  UNL1       -0.0394
     15 C          62.8080   81.0614   11.8685 C.ar    1  UNL1        0.1260
     16 C          62.5229   79.7938   12.6183 C.ar    1  UNL1        0.1201
     17 N          62.4973   78.4820   11.8912 N.ar    1  UNL1       -0.2390
     18 C          62.7569   78.4378   10.4145 C.ar    1  UNL1        0.1195
     19 C          63.0420   79.7053    9.6648 C.ar    1  UNL1        0.1195
     20 N          63.0676   81.0171   10.3918 N.ar    1  UNL1       -0.2385
     21 C          64.1544   92.8046   10.2837 C.3     1  UNL1        0.0312
     22 C          64.2282   91.8036   11.3985 C.3     1  UNL1        0.1274
     23 C          65.2601   91.9563   12.4764 C.ar    1  UNL1        0.0038
     24 C          64.9759   91.4586   13.8626 C.ar    1  UNL1       -0.0025
     25 C          66.0077   91.6113   14.9405 C.ar    1  UNL1        0.0036
     26 C          67.3238   92.2616   14.6322 C.ar    1  UNL1        0.0714
     27 C          67.6080   92.7593   13.2461 C.ar    1  UNL1        0.0074
     28 C          66.5761   92.6066   12.1682 C.ar    1  UNL1        0.0692
     29 C          68.3557   92.4143   15.7102 C.3     1  UNL1        0.4186
     30 F          69.3875   92.5669   16.7882 F       1  UNL1       -0.1659
     31 F          69.4356   92.4589   14.6702 F       1  UNL1       -0.1659
     32 F          67.2757   92.3696   16.7502 F       1  UNL1       -0.1659
     33 C          66.8603   93.1043   10.7819 C.3     1  UNL1        0.4183
     34 F          67.1445   93.6021    9.3958 F       1  UNL1       -0.1659
     35 F          66.4359   94.4839   11.1903 F       1  UNL1       -0.1659
     36 F          67.2847   91.7248   10.3736 F       1  UNL1       -0.1659
@<TRIPOS>BOND
     1    21    22    1
     2    22    23    1
     3    23    24   ar
     4    24    25   ar
     5    25    26   ar
     6    26    29    1
     7    29    30    1
     8    29    31    1
     9    29    32    1
    10    26    27   ar
    11    27    28   ar
    12    28    33    1
    13    33    34    1
    14    33    35    1
    15    33    36    1
    16    22     1    1
    17     1     2   ar
    18     2     3   ar
    19     3     6    1
    20     6     7   am
    21     7     8    2
    22     7    10    1
    23    10    11   ar
    24    11    12   ar
    25    12    13   ar
    26    13    15    1
    27    15    16   ar
    28    16    17   ar
    29    17    18   ar
    30    18    19   ar
    31    19    20   ar
    32    13    14   ar
    33     3     4   ar
    34     4     5   ar
    35    28    23   ar
    36     5     1   ar
    37    14    10   ar
    38    20    15   ar
    39     6     9    1
@<TRIPOS>MOLECULE
*****
 36 39 0 0 0
SMALL
GASTEIGER

@<TRIPOS>ATOM
      1 N          59.9277   89.1398    9.0550 N.ar    1  UNL1       -0.2459
      2 C          60.5730   90.1172    8.1178 C.ar    1  UNL1        0.1116
      3 C          60.0616   89.8404    6.7351 C.ar    1  UNL1        0.0908
      4 C          59.1002   88.6919    6.8177 C.ar    1  UNL1        0.1363
      5 N          59.0174   88.2590    8.2515 N.ar    1  UNL1       -0.1661
      6 N          60.4443   90.5818    5.4886 N.am    1  UNL1       -0.2762
      7 C          59.4532   91.4884    4.8210 C.2     1  UNL1        0.2754
      8 O          58.0793   91.6536    5.3999 O.2     1  UNL1       -0.2675
      9 H          61.3461   90.4734    5.1086 H       1  UNL1        0.1553
     10 C          59.8360   92.2299    3.5745 C.ar    1  UNL1        0.1872
     11 N          58.8880   92.8481    2.5901 N.ar    1  UNL1       -0.1361
     12 N          59.7002   93.4836    1.5008 N.ar    1  UNL1       -0.1391
     13 C          61.1501   93.2581    1.8120 C.ar    1  UNL1        0.1529
     14 S          61.2341   92.4833    3.0937 S.2     1  UNL1       -0.0394
     15 C          62.3121   93.7255    0.9865 C.ar    1  UNL1        0.1260
     16 C          62.0953   94.7107   -0.1237 C.ar    1  UNL1        0.1201
     17 N          63.2573   95.1781   -0.9492 N.ar    1  UNL1       -0.2390
     18 C          64.6360   94.6601   -0.6645 C.ar    1  UNL1        0.1195
     19 C          64.8527   93.6749    0.4455 C.ar    1  UNL1        0.1195
     20 N          63.6907   93.2075    1.2711 N.ar    1  UNL1       -0.2385
     21 C          59.4426   90.0053   11.4561 C.3     1  UNL1        0.0312
     22 C          60.1530   89.0577   10.5357 C.3     1  UNL1        0.1274
     23 C          61.0890   88.0280   11.0959 C.ar    1  UNL1        0.0038
     24 C          60.7552   86.5701   10.9820 C.ar    1  UNL1       -0.0025
     25 C          61.6911   85.5405   11.5423 C.ar    1  UNL1        0.0036
     26 C          62.9608   85.9688   12.2164 C.ar    1  UNL1        0.0714
     27 C          63.2946   87.4267   12.3302 C.ar    1  UNL1        0.0074
     28 C          62.3587   88.4563   11.7700 C.ar    1  UNL1        0.0692
     29 C          63.8967   84.9390   12.7766 C.3     1  UNL1        0.4186
     30 F          64.8326   83.9093   13.3367 F       1  UNL1       -0.1659
     31 F          64.1652   85.8251   13.9568 F       1  UNL1       -0.1659
     32 F          63.6283   84.0530   11.5964 F       1  UNL1       -0.1659
     33 C          62.6925   89.9143   11.8839 C.3     1  UNL1        0.4183
     34 F          63.0262   91.3722   11.9978 F       1  UNL1       -0.1659
     35 F          62.2213   89.9109   13.3079 F       1  UNL1       -0.1659
     36 F          63.1637   89.9177   10.4599 F       1  UNL1       -0.1659
@<TRIPOS>BOND
     1    21    22    1
     2    22    23    1
     3    23    24   ar
     4    24    25   ar
     5    25    26   ar
     6    26    29    1
     7    29    30    1
     8    29    31    1
     9    29    32    1
    10    26    27   ar
    11    27    28   ar
    12    28    33    1
    13    33    34    1
    14    33    35    1
    15    33    36    1
    16    22     1    1
    17     1     2   ar
    18     2     3   ar
    19     3     6    1
    20     6     7   am
    21     7     8    2
    22     7    10    1
    23    10    11   ar
    24    11    12   ar
    25    12    13   ar
    26    13    15    1
    27    15    16   ar
    28    16    17   ar
    29    17    18   ar
    30    18    19   ar
    31    19    20   ar
    32    13    14   ar
    33     3     4   ar
    34     4     5   ar
    35    28    23   ar
    36     5     1   ar
    37    14    10   ar
    38    20    15   ar
    39     6     9    1
@<TRIPOS>MOLECULE
*****
 36 39 0 0 0
SMALL
GASTEIGER

@<TRIPOS>ATOM
      1 N          59.6292   89.0517    7.4376 N.ar    1  UNL1       -0.2459
      2 C          60.6366   89.8379    6.6521 C.ar    1  UNL1        0.1116
      3 C          59.9030   90.6000    5.5886 C.ar    1  UNL1        0.0908
      4 C          58.4421   90.2848    5.7169 C.ar    1  UNL1        0.1363
      5 N          58.2729   89.3280    6.8596 N.ar    1  UNL1       -0.1661
      6 N          60.5216   91.5163    4.5750 N.am    1  UNL1       -0.2762
      7 C          59.6522   92.4175    3.7492 C.2     1  UNL1        0.2754
      8 O          58.1640   92.4023    3.9371 O.2     1  UNL1       -0.2675
      9 H          61.4983   91.5263    4.4516 H       1  UNL1        0.1553
     10 C          60.2708   93.3338    2.7355 C.ar    1  UNL1        0.1872
     11 N          60.1206   94.8255    2.6876 N.ar    1  UNL1       -0.1361
     12 N          60.9053   95.3329    1.5142 N.ar    1  UNL1       -0.1391
     13 C          61.5404   94.1549    0.8369 C.ar    1  UNL1        0.1529
     14 S          61.1483   92.9193    1.5917 S.2     1  UNL1       -0.0394
     15 C          62.4142   94.2037   -0.3814 C.ar    1  UNL1        0.1260
     16 C          63.6602   95.0389   -0.3776 C.ar    1  UNL1        0.1201
     17 N          64.5340   95.0878   -1.5958 N.ar    1  UNL1       -0.2390
     18 C          64.1618   94.3015   -2.8178 C.ar    1  UNL1        0.1195
     19 C          62.9159   93.4663   -2.8215 C.ar    1  UNL1        0.1195
     20 N          62.0421   93.4174   -1.6033 N.ar    1  UNL1       -0.2385
     21 C          59.3053   86.7840    8.6634 C.3     1  UNL1        0.0312
     22 C          59.9260   88.1480    8.5974 C.3     1  UNL1        0.1274
     23 C          60.8434   88.6083    9.6913 C.ar    1  UNL1        0.0038
     24 C          60.7277   90.0035   10.2297 C.ar    1  UNL1       -0.0025
     25 C          61.6451   90.4638   11.3236 C.ar    1  UNL1        0.0036
     26 C          62.6782   89.5288   11.8790 C.ar    1  UNL1        0.0714
     27 C          62.7939   88.1336   11.3406 C.ar    1  UNL1        0.0074
     28 C          61.8765   87.6733   10.2467 C.ar    1  UNL1        0.0692
     29 C          63.5956   89.9891   12.9729 C.3     1  UNL1        0.4186
     30 F          64.5130   90.4494   14.0667 F       1  UNL1       -0.1659
     31 F          63.9418   88.5629   13.2827 F       1  UNL1       -0.1659
     32 F          63.2494   91.4153   12.6630 F       1  UNL1       -0.1659
     33 C          61.9922   86.2781    9.7082 C.3     1  UNL1        0.4183
     34 F          62.1079   84.8829    9.1698 F       1  UNL1       -0.1659
     35 F          62.8229   86.7871    8.5678 F       1  UNL1       -0.1659
     36 F          61.1615   85.7690   10.8487 F       1  UNL1       -0.1659
@<TRIPOS>BOND
     1    21    22    1
     2    22    23    1
     3    23    24   ar
     4    24    25   ar
     5    25    26   ar
     6    26    29    1
     7    29    30    1
     8    29    31    1
     9    29    32    1
    10    26    27   ar
    11    27    28   ar
    12    28    33    1
    13    33    34    1
    14    33    35    1
    15    33    36    1
    16    22     1    1
    17     1     2   ar
    18     2     3   ar
    19     3     6    1
    20     6     7   am
    21     7     8    2
    22     7    10    1
    23    10    11   ar
    24    11    12   ar
    25    12    13   ar
    26    13    15    1
    27    15    16   ar
    28    16    17   ar
    29    17    18   ar
    30    18    19   ar
    31    19    20   ar
    32    13    14   ar
    33     3     4   ar
    34     4     5   ar
    35    28    23   ar
    36     5     1   ar
    37    14    10   ar
    38    20    15   ar
    39     6     9    1
