@<TRIPOS>MOLECULE
*****
 39 43 0 0 0
SMALL
GASTEIGER

@<TRIPOS>ATOM
      1 O          61.9595   88.2703   12.2024 O.3     1  UNL1       -0.4511
      2 C          62.9030   89.4345   12.1347 C.ar    1  UNL1        0.1748
      3 C          62.8888   90.3429   10.9410 C.ar    1  UNL1        0.0708
      4 C          63.8322   91.5070   10.8732 C.ar    1  UNL1        0.1621
      5 F          63.8181   92.4154    9.6796 F       1  UNL1       -0.2026
      6 C          64.7899   91.7628   11.9991 C.ar    1  UNL1        0.1550
      7 C          64.8040   90.8545   13.1927 C.ar    1  UNL1        0.0553
      8 C          63.8606   89.6903   13.2605 C.ar    1  UNL1        0.1759
      9 F          63.8747   88.7820   14.4540 F       1  UNL1       -0.2009
     10 S          65.7333   92.9270   11.9313 S.O2    1  UNL1        0.0780
     11 O          66.0316   92.6019   10.4977 O.2     1  UNL1       -0.1498
     12 O          65.4351   93.2522   13.3650 O.2     1  UNL1       -0.1498
     13 N          66.6768   94.0912   11.8636 N.pl3   1  UNL1       -0.1835
     14 H          67.3146   94.2512   12.5962 H       1  UNL1        0.1767
     15 C          66.6484   95.0116   10.6794 C.ar    1  UNL1        0.2360
     16 N          67.7949   95.0250    9.7123 N.ar    1  UNL1       -0.2110
     17 C          67.7665   95.9454    8.5282 C.ar    1  UNL1        0.1035
     18 C          66.5916   96.8524    8.3112 C.ar    1  UNL1        0.0414
     19 C          65.4451   96.8389    9.2784 C.ar    1  UNL1        0.1035
     20 N          65.4735   95.9185   10.4625 N.ar    1  UNL1       -0.2110
     21 C          61.7370   86.1249   10.7540 C.ar    1  UNL1        0.0354
     22 C          61.2865   85.4502    9.4924 C.ar    1  UNL1        0.0144
     23 C          60.6079   86.2463    8.4173 C.ar    1  UNL1        0.0579
     24 CL         60.1573   85.5717    7.1557 Cl      1  UNL1       -0.0822
     25 C          60.3798   87.7171    8.6040 C.ar    1  UNL1        0.0145
     26 C          60.8303   88.3918    9.8657 C.ar    1  UNL1        0.0384
     27 C          61.5090   87.5957   10.9407 C.ar    1  UNL1        0.1454
     28 N          62.6519   80.4783   12.1929 N.pl3   1  UNL1       -0.3400
     29 C          63.2069   81.5563   13.0760 C.ar    1  UNL1        0.1674
     30 N          63.9989   81.3462   14.3324 N.ar    1  UNL1       -0.0623
     31 O          64.3488   82.6938   14.8906 O.2     1  UNL1       -0.3522
     32 C          63.7730   83.7368   13.9792 C.ar    1  UNL1        0.1781
     33 C          63.8001   85.2358   14.0256 C.ar    1  UNL1        0.0403
     34 C          63.1215   86.0318   12.9506 C.ar    1  UNL1        0.0033
     35 C          62.4157   85.3288   11.8291 C.ar    1  UNL1        0.0033
     36 C          62.3886   83.8298   11.7827 C.ar    1  UNL1        0.0061
     37 C          63.0672   83.0338   12.8577 C.ar    1  UNL1        0.0715
     38 H          62.7970   79.5317   12.4212 H       1  UNL1        0.1438
     39 H          62.1424   80.7174   11.3851 H       1  UNL1        0.1438
@<TRIPOS>BOND
     1    28    29    1
     2    29    30   ar
     3    30    31   ar
     4    31    32   ar
     5    32    33   ar
     6    33    34   ar
     7    34    35   ar
     8    35    21    1
     9    21    22   ar
    10    22    23   ar
    11    23    24    1
    12    23    25   ar
    13    25    26   ar
    14    26    27   ar
    15    27     1    1
    16     1     2    1
    17     2     3   ar
    18     3     4   ar
    19     4     5    1
    20     4     6   ar
    21     6    10    1
    22    10    11    2
    23    10    12    2
    24    10    13    1
    25    13    15    1
    26    15    16   ar
    27    16    17   ar
    28    17    18   ar
    29    18    19   ar
    30    19    20   ar
    31     6     7   ar
    32     7     8   ar
    33     8     9    1
    34    35    36   ar
    35    36    37   ar
    36    37    29   ar
    37    37    32   ar
    38    27    21   ar
    39     8     2   ar
    40    20    15   ar
    41    28    38    1
    42    28    39    1
    43    13    14    1
@<TRIPOS>MOLECULE
*****
 39 43 0 0 0
SMALL
GASTEIGER

@<TRIPOS>ATOM
      1 O          63.3080   90.6675   13.8764 O.3     1  UNL1       -0.4511
      2 C          63.4685   89.1980   14.1308 C.ar    1  UNL1        0.1748
      3 C          63.4475   88.2316   12.9837 C.ar    1  UNL1        0.0708
      4 C          63.6080   86.7620   13.2381 C.ar    1  UNL1        0.1621
      5 F          63.5869   85.7957   12.0911 F       1  UNL1       -0.2026
      6 C          63.7895   86.2589   14.6395 C.ar    1  UNL1        0.1550
      7 C          63.8106   87.2253   15.7865 C.ar    1  UNL1        0.0553
      8 C          63.6501   88.6948   15.5321 C.ar    1  UNL1        0.1759
      9 F          63.6711   89.6612   16.6791 F       1  UNL1       -0.2009
     10 S          63.9500   84.7894   14.8939 S.O2    1  UNL1        0.0780
     11 O          62.4886   84.6855   15.2155 O.2     1  UNL1       -0.1498
     12 O          65.4114   84.8933   14.5722 O.2     1  UNL1       -0.1498
     13 N          64.1105   83.3198   15.1483 N.pl3   1  UNL1       -0.1835
     14 H          64.5307   83.0076   15.9820 H       1  UNL1        0.1767
     15 C          63.6307   82.3260   14.1323 C.ar    1  UNL1        0.2360
     16 N          63.9736   82.5095   12.6836 N.ar    1  UNL1       -0.2110
     17 C          63.4937   81.5157   11.6676 C.ar    1  UNL1        0.1035
     18 C          62.6710   80.3384   12.1004 C.ar    1  UNL1        0.0414
     19 C          62.3282   80.1550   13.5491 C.ar    1  UNL1        0.1035
     20 N          62.8080   81.1488   14.5650 N.ar    1  UNL1       -0.2110
     21 C          63.8547   91.2565   11.4057 C.ar    1  UNL1        0.0354
     22 C          64.7266   91.9425   10.3961 C.ar    1  UNL1        0.0144
     23 C          65.9237   92.7255   10.8476 C.ar    1  UNL1        0.0579
     24 CL         66.7956   93.4115    9.8380 Cl      1  UNL1       -0.0822
     25 C          66.2490   92.8225   12.3087 C.ar    1  UNL1        0.0145
     26 C          65.3771   92.1365   13.3183 C.ar    1  UNL1        0.0384
     27 C          64.1800   91.3535   12.8668 C.ar    1  UNL1        0.1454
     28 N          62.6436   86.1398    8.7330 N.pl3   1  UNL1       -0.3400
     29 C          61.5123   87.0349    9.1441 C.ar    1  UNL1        0.1674
     30 N          60.0518   86.7595    8.9417 N.ar    1  UNL1       -0.0623
     31 O          59.2799   87.9170    9.5023 O.2     1  UNL1       -0.3522
     32 C          60.2633   88.9077   10.0513 C.ar    1  UNL1        0.1781
     33 C          60.0807   90.2358   10.7241 C.ar    1  UNL1        0.0403
     34 C          61.2778   91.0187   11.1756 C.ar    1  UNL1        0.0033
     35 C          62.6576   90.4735   10.9542 C.ar    1  UNL1        0.0033
     36 C          62.8402   89.1454   10.2814 C.ar    1  UNL1        0.0061
     37 C          61.6431   88.3625    9.8299 C.ar    1  UNL1        0.0715
     38 H          62.4559   85.2829    8.2861 H       1  UNL1        0.1438
     39 H          63.5738   86.4091    8.9101 H       1  UNL1        0.1438
@<TRIPOS>BOND
     1    28    29    1
     2    29    30   ar
     3    30    31   ar
     4    31    32   ar
     5    32    33   ar
     6    33    34   ar
     7    34    35   ar
     8    35    21    1
     9    21    22   ar
    10    22    23   ar
    11    23    24    1
    12    23    25   ar
    13    25    26   ar
    14    26    27   ar
    15    27     1    1
    16     1     2    1
    17     2     3   ar
    18     3     4   ar
    19     4     5    1
    20     4     6   ar
    21     6    10    1
    22    10    11    2
    23    10    12    2
    24    10    13    1
    25    13    15    1
    26    15    16   ar
    27    16    17   ar
    28    17    18   ar
    29    18    19   ar
    30    19    20   ar
    31     6     7   ar
    32     7     8   ar
    33     8     9    1
    34    35    36   ar
    35    36    37   ar
    36    37    29   ar
    37    37    32   ar
    38    27    21   ar
    39     8     2   ar
    40    20    15   ar
    41    28    38    1
    42    28    39    1
    43    13    14    1
@<TRIPOS>MOLECULE
*****
 39 43 0 0 0
SMALL
GASTEIGER

@<TRIPOS>ATOM
      1 O          61.2385   87.0836   11.1371 O.3     1  UNL1       -0.4511
      2 C          62.0774   88.2917   11.4314 C.ar    1  UNL1        0.1748
      3 C          63.0726   88.2585   12.5533 C.ar    1  UNL1        0.0708
      4 C          63.9116   89.4665   12.8476 C.ar    1  UNL1        0.1621
      5 F          64.9068   89.4333   13.9694 F       1  UNL1       -0.2026
      6 C          63.7554   90.7079   12.0201 C.ar    1  UNL1        0.1550
      7 C          62.7602   90.7411   10.8983 C.ar    1  UNL1        0.0553
      8 C          61.9213   89.5330   10.6039 C.ar    1  UNL1        0.1759
      9 F          60.9261   89.5662    9.4821 F       1  UNL1       -0.2009
     10 S          64.5944   91.9160   12.3144 S.O2    1  UNL1        0.0780
     11 O          64.1574   91.8700   13.7486 O.2     1  UNL1       -0.1498
     12 O          65.0314   91.9619   10.8802 O.2     1  UNL1       -0.1498
     13 N          65.4334   93.1241   12.6087 N.pl3   1  UNL1       -0.1835
     14 H          65.2005   93.9939   12.2108 H       1  UNL1        0.1767
     15 C          66.6272   93.0068   13.5095 C.ar    1  UNL1        0.2360
     16 N          67.7661   92.1067   13.1318 N.ar    1  UNL1       -0.2110
     17 C          68.9599   91.9894   14.0325 C.ar    1  UNL1        0.1035
     18 C          69.0146   92.7723   15.3109 C.ar    1  UNL1        0.0414
     19 C          67.8756   93.6724   15.6885 C.ar    1  UNL1        0.1035
     20 N          66.6819   93.7896   14.7878 N.ar    1  UNL1       -0.2110
     21 C          62.1356   85.1583    9.6409 C.ar    1  UNL1        0.0354
     22 C          62.2281   84.4892    8.3017 C.ar    1  UNL1        0.0144
     23 C          61.5160   85.0762    7.1191 C.ar    1  UNL1        0.0579
     24 CL         61.6085   84.4071    5.7799 Cl      1  UNL1       -0.0822
     25 C          60.7114   86.3324    7.2759 C.ar    1  UNL1        0.0145
     26 C          60.6189   87.0015    8.6153 C.ar    1  UNL1        0.0384
     27 C          61.3310   86.4145    9.7977 C.ar    1  UNL1        0.1454
     28 N          61.5510   84.9120   15.5051 N.pl3   1  UNL1       -0.3400
     29 C          62.7173   84.2259   14.8578 C.ar    1  UNL1        0.1674
     30 N          63.7912   83.4550   15.5667 N.ar    1  UNL1       -0.0623
     31 O          64.7520   82.9429   14.5349 O.2     1  UNL1       -0.3522
     32 C          64.2719   83.3972   13.1884 C.ar    1  UNL1        0.1781
     33 C          64.8174   83.1913   11.8063 C.ar    1  UNL1        0.0403
     34 C          64.1053   83.7783   10.6239 C.ar    1  UNL1        0.0033
     35 C          62.8477   84.5713   10.8235 C.ar    1  UNL1        0.0033
     36 C          62.3023   84.7772   12.2055 C.ar    1  UNL1        0.0061
     37 C          63.0144   84.1901   13.3879 C.ar    1  UNL1        0.0715
     38 H          61.4412   84.8789   16.4829 H       1  UNL1        0.1438
     39 H          60.8954   85.3954   14.9522 H       1  UNL1        0.1438
@<TRIPOS>BOND
     1    28    29    1
     2    29    30   ar
     3    30    31   ar
     4    31    32   ar
     5    32    33   ar
     6    33    34   ar
     7    34    35   ar
     8    35    21    1
     9    21    22   ar
    10    22    23   ar
    11    23    24    1
    12    23    25   ar
    13    25    26   ar
    14    26    27   ar
    15    27     1    1
    16     1     2    1
    17     2     3   ar
    18     3     4   ar
    19     4     5    1
    20     4     6   ar
    21     6    10    1
    22    10    11    2
    23    10    12    2
    24    10    13    1
    25    13    15    1
    26    15    16   ar
    27    16    17   ar
    28    17    18   ar
    29    18    19   ar
    30    19    20   ar
    31     6     7   ar
    32     7     8   ar
    33     8     9    1
    34    35    36   ar
    35    36    37   ar
    36    37    29   ar
    37    37    32   ar
    38    27    21   ar
    39     8     2   ar
    40    20    15   ar
    41    28    38    1
    42    28    39    1
    43    13    14    1
@<TRIPOS>MOLECULE
*****
 39 43 0 0 0
SMALL
GASTEIGER

@<TRIPOS>ATOM
      1 O          61.3023   87.2566   11.2622 O.3     1  UNL1       -0.4511
      2 C          62.1549   88.4695   11.4901 C.ar    1  UNL1        0.1748
      3 C          63.1554   88.4838   12.6077 C.ar    1  UNL1        0.0708
      4 C          64.0079   89.6968   12.8356 C.ar    1  UNL1        0.1621
      5 F          65.0083   89.7111   13.9531 F       1  UNL1       -0.2026
      6 C          63.8601   90.8954   11.9459 C.ar    1  UNL1        0.1550
      7 C          62.8596   90.8810   10.8283 C.ar    1  UNL1        0.0553
      8 C          62.0071   89.6681   10.6005 C.ar    1  UNL1        0.1759
      9 F          61.0066   89.6538    9.4829 F       1  UNL1       -0.2009
     10 S          64.7126   92.1083   12.1738 S.O2    1  UNL1        0.0780
     11 O          64.3944   92.0568   13.6387 O.2     1  UNL1       -0.1498
     12 O          65.0309   92.1598   10.7088 O.2     1  UNL1       -0.1498
     13 N          65.5652   93.3212   12.4016 N.pl3   1  UNL1       -0.1835
     14 H          65.6932   93.6686   13.3139 H       1  UNL1        0.1767
     15 C          66.2228   94.0049   11.2396 C.ar    1  UNL1        0.2360
     16 N          67.4189   93.3826   10.5822 N.ar    1  UNL1       -0.2110
     17 C          68.0764   94.0663    9.4201 C.ar    1  UNL1        0.1035
     18 C          67.5378   95.3721    8.9155 C.ar    1  UNL1        0.0414
     19 C          66.3417   95.9943    9.5729 C.ar    1  UNL1        0.1035
     20 N          65.6842   95.3107   10.7349 N.ar    1  UNL1       -0.2110
     21 C          62.0799   85.2714    9.7774 C.ar    1  UNL1        0.0354
     22 C          62.1061   84.5751    8.4492 C.ar    1  UNL1        0.0144
     23 C          61.3810   85.1675    7.2773 C.ar    1  UNL1        0.0579
     24 CL         61.4072   84.4711    5.9490 Cl      1  UNL1       -0.0822
     25 C          60.6296   86.4563    7.4337 C.ar    1  UNL1        0.0145
     26 C          60.6034   87.1527    8.7621 C.ar    1  UNL1        0.0384
     27 C          61.3285   86.5603    9.9339 C.ar    1  UNL1        0.1454
     28 N          61.5728   85.0177   15.6486 N.pl3   1  UNL1       -0.3400
     29 C          62.7270   84.3273   14.9845 C.ar    1  UNL1        0.1674
     30 N          63.8067   83.5502   15.6776 N.ar    1  UNL1       -0.0623
     31 O          64.7512   83.0353   14.6322 O.2     1  UNL1       -0.3522
     32 C          64.2552   83.4942   13.2930 C.ar    1  UNL1        0.1781
     33 C          64.7811   83.2881   11.9034 C.ar    1  UNL1        0.0403
     34 C          64.0560   83.8805   10.7316 C.ar    1  UNL1        0.0033
     35 C          62.8050   84.6790   10.9494 C.ar    1  UNL1        0.0033
     36 C          62.2791   84.8851   12.3389 C.ar    1  UNL1        0.0061
     37 C          63.0042   84.2927   13.5107 C.ar    1  UNL1        0.0715
     38 H          61.4759   84.9835   16.6277 H       1  UNL1        0.1438
     39 H          60.9121   85.5052   15.1053 H       1  UNL1        0.1438
@<TRIPOS>BOND
     1    28    29    1
     2    29    30   ar
     3    30    31   ar
     4    31    32   ar
     5    32    33   ar
     6    33    34   ar
     7    34    35   ar
     8    35    21    1
     9    21    22   ar
    10    22    23   ar
    11    23    24    1
    12    23    25   ar
    13    25    26   ar
    14    26    27   ar
    15    27     1    1
    16     1     2    1
    17     2     3   ar
    18     3     4   ar
    19     4     5    1
    20     4     6   ar
    21     6    10    1
    22    10    11    2
    23    10    12    2
    24    10    13    1
    25    13    15    1
    26    15    16   ar
    27    16    17   ar
    28    17    18   ar
    29    18    19   ar
    30    19    20   ar
    31     6     7   ar
    32     7     8   ar
    33     8     9    1
    34    35    36   ar
    35    36    37   ar
    36    37    29   ar
    37    37    32   ar
    38    27    21   ar
    39     8     2   ar
    40    20    15   ar
    41    28    38    1
    42    28    39    1
    43    13    14    1
@<TRIPOS>MOLECULE
*****
 39 43 0 0 0
SMALL
GASTEIGER

@<TRIPOS>ATOM
      1 O          61.5205   87.0789   11.2790 O.3     1  UNL1       -0.4511
      2 C          62.3432   88.3037   11.5493 C.ar    1  UNL1        0.1748
      3 C          62.2132   89.5056   10.6611 C.ar    1  UNL1        0.0708
      4 C          63.0358   90.7304   10.9314 C.ar    1  UNL1        0.1621
      5 F          62.9059   91.9322   10.0433 F       1  UNL1       -0.2026
      6 C          63.9886   90.7533   12.0899 C.ar    1  UNL1        0.1550
      7 C          64.1186   89.5515   12.9779 C.ar    1  UNL1        0.0553
      8 C          63.2959   88.3267   12.7076 C.ar    1  UNL1        0.1759
      9 F          63.4259   87.1249   13.5957 F       1  UNL1       -0.2009
     10 S          64.8112   91.9782   12.3601 S.O2    1  UNL1        0.0780
     11 O          65.2681   91.9866   10.9314 O.2     1  UNL1       -0.1498
     12 O          64.3544   91.9697   13.7888 O.2     1  UNL1       -0.1498
     13 N          65.6339   93.2030   12.6304 N.pl3   1  UNL1       -0.1835
     14 H          65.4009   94.0573   12.2002 H       1  UNL1        0.1767
     15 C          66.8117   93.1261   13.5562 C.ar    1  UNL1        0.2360
     16 N          66.8243   93.9306   14.8221 N.ar    1  UNL1       -0.2110
     17 C          68.0020   93.8537   15.7480 C.ar    1  UNL1        0.1035
     18 C          69.1671   92.9724   15.4078 C.ar    1  UNL1        0.0414
     19 C          69.1545   92.1678   14.1418 C.ar    1  UNL1        0.1035
     20 N          67.9768   92.2447   13.2161 N.ar    1  UNL1       -0.2110
     21 C          62.2291   85.1033    9.7476 C.ar    1  UNL1        0.0354
     22 C          62.2674   84.4578    8.3942 C.ar    1  UNL1        0.0144
     23 C          61.6353   85.1424    7.2186 C.ar    1  UNL1        0.0579
     24 CL         61.6736   84.4969    5.8651 Cl      1  UNL1       -0.0822
     25 C          60.9650   86.4724    7.3965 C.ar    1  UNL1        0.0145
     26 C          60.9268   87.1179    8.7500 C.ar    1  UNL1        0.0384
     27 C          61.5588   86.4334    9.9255 C.ar    1  UNL1        0.1454
     28 N          61.6850   84.9506   15.6189 N.pl3   1  UNL1       -0.3400
     29 C          62.7297   84.0997   14.9597 C.ar    1  UNL1        0.1674
     30 N          63.6869   83.1797   15.6579 N.ar    1  UNL1       -0.0623
     31 O          64.5493   82.5308   14.6162 O.2     1  UNL1       -0.3522
     32 C          64.1252   83.0497   13.2742 C.ar    1  UNL1        0.1781
     33 C          64.6178   82.7646   11.8864 C.ar    1  UNL1        0.0403
     34 C          63.9858   83.4492   10.7109 C.ar    1  UNL1        0.0033
     35 C          62.8611   84.4188   10.9232 C.ar    1  UNL1        0.0033
     36 C          62.3686   84.7039   12.3110 C.ar    1  UNL1        0.0061
     37 C          63.0006   84.0194   13.4865 C.ar    1  UNL1        0.0715
     38 H          61.5833   84.9349   16.5980 H       1  UNL1        0.1438
     39 H          61.1011   85.5248   15.0725 H       1  UNL1        0.1438
@<TRIPOS>BOND
     1    28    29    1
     2    29    30   ar
     3    30    31   ar
     4    31    32   ar
     5    32    33   ar
     6    33    34   ar
     7    34    35   ar
     8    35    21    1
     9    21    22   ar
    10    22    23   ar
    11    23    24    1
    12    23    25   ar
    13    25    26   ar
    14    26    27   ar
    15    27     1    1
    16     1     2    1
    17     2     3   ar
    18     3     4   ar
    19     4     5    1
    20     4     6   ar
    21     6    10    1
    22    10    11    2
    23    10    12    2
    24    10    13    1
    25    13    15    1
    26    15    16   ar
    27    16    17   ar
    28    17    18   ar
    29    18    19   ar
    30    19    20   ar
    31     6     7   ar
    32     7     8   ar
    33     8     9    1
    34    35    36   ar
    35    36    37   ar
    36    37    29   ar
    37    37    32   ar
    38    27    21   ar
    39     8     2   ar
    40    20    15   ar
    41    28    38    1
    42    28    39    1
    43    13    14    1
@<TRIPOS>MOLECULE
*****
 39 43 0 0 0
SMALL
GASTEIGER

@<TRIPOS>ATOM
      1 O          62.6323   88.4137   13.3659 O.3     1  UNL1       -0.4511
      2 C          63.5045   89.5856   13.0252 C.ar    1  UNL1        0.1748
      3 C          63.3280   90.2963   11.7160 C.ar    1  UNL1        0.0708
      4 C          64.2001   91.4682   11.3752 C.ar    1  UNL1        0.1621
      5 F          64.0237   92.1789   10.0662 F       1  UNL1       -0.2026
      6 C          65.2487   91.9294   12.3437 C.ar    1  UNL1        0.1550
      7 C          65.4252   91.2187   13.6528 C.ar    1  UNL1        0.0553
      8 C          64.5530   90.0468   13.9935 C.ar    1  UNL1        0.1759
      9 F          64.7295   89.3361   15.3026 F       1  UNL1       -0.2009
     10 S          66.1208   93.1012   12.0029 S.O2    1  UNL1        0.0780
     11 O          65.7169   93.7736   13.2815 O.2     1  UNL1       -0.1498
     12 O          66.5248   92.4289   10.7244 O.2     1  UNL1       -0.1498
     13 N          66.9930   94.2731   11.6622 N.pl3   1  UNL1       -0.1835
     14 H          67.7812   94.4775   12.2155 H       1  UNL1        0.1767
     15 C          66.6641   95.1336   10.4784 C.ar    1  UNL1        0.2360
     16 N          67.6116   95.2067    9.3179 N.ar    1  UNL1       -0.2110
     17 C          67.2827   96.0672    8.1340 C.ar    1  UNL1        0.1035
     18 C          66.0063   96.8547    8.1108 C.ar    1  UNL1        0.0414
     19 C          65.0587   96.7817    9.2714 C.ar    1  UNL1        0.1035
     20 N          65.3877   95.9212   10.4551 N.ar    1  UNL1       -0.2110
     21 C          62.7183   86.1006   12.1861 C.ar    1  UNL1        0.0354
     22 C          63.2662   84.7071   12.0974 C.ar    1  UNL1        0.0144
     23 C          64.2762   84.2331   13.1001 C.ar    1  UNL1        0.0579
     24 CL         64.8241   82.8396   13.0115 Cl      1  UNL1       -0.0822
     25 C          64.7383   85.1527   14.1914 C.ar    1  UNL1        0.0145
     26 C          64.1903   86.5463   14.2799 C.ar    1  UNL1        0.0384
     27 C          63.1803   87.0202   13.2773 C.ar    1  UNL1        0.1454
     28 N          60.9449   84.8008    6.7127 N.pl3   1  UNL1       -0.3400
     29 C          60.2746   85.9213    7.4511 C.ar    1  UNL1        0.1674
     30 N          59.1605   86.7793    6.9288 N.ar    1  UNL1       -0.0623
     31 O          58.7981   87.7688    7.9963 O.2     1  UNL1       -0.3522
     32 C          59.6882   87.5225    9.1782 C.ar    1  UNL1        0.1781
     33 C          59.7857   88.1903   10.5178 C.ar    1  UNL1        0.0403
     34 C          60.7957   87.7164   11.5203 C.ar    1  UNL1        0.0033
     35 C          61.7082   86.5745   11.1834 C.ar    1  UNL1        0.0033
     36 C          61.6107   85.9067    9.8439 C.ar    1  UNL1        0.0061
     37 C          60.6008   86.3806    8.8413 C.ar    1  UNL1        0.0715
     38 H          60.6589   84.5731    5.7986 H       1  UNL1        0.1438
     39 H          61.6708   84.2930    7.1423 H       1  UNL1        0.1438
@<TRIPOS>BOND
     1    28    29    1
     2    29    30   ar
     3    30    31   ar
     4    31    32   ar
     5    32    33   ar
     6    33    34   ar
     7    34    35   ar
     8    35    21    1
     9    21    22   ar
    10    22    23   ar
    11    23    24    1
    12    23    25   ar
    13    25    26   ar
    14    26    27   ar
    15    27     1    1
    16     1     2    1
    17     2     3   ar
    18     3     4   ar
    19     4     5    1
    20     4     6   ar
    21     6    10    1
    22    10    11    2
    23    10    12    2
    24    10    13    1
    25    13    15    1
    26    15    16   ar
    27    16    17   ar
    28    17    18   ar
    29    18    19   ar
    30    19    20   ar
    31     6     7   ar
    32     7     8   ar
    33     8     9    1
    34    35    36   ar
    35    36    37   ar
    36    37    29   ar
    37    37    32   ar
    38    27    21   ar
    39     8     2   ar
    40    20    15   ar
    41    28    38    1
    42    28    39    1
    43    13    14    1
@<TRIPOS>MOLECULE
*****
 39 43 0 0 0
SMALL
GASTEIGER

@<TRIPOS>ATOM
      1 O          63.4076   85.3608   11.5995 O.3     1  UNL1       -0.4511
      2 C          62.4108   86.0037   10.6812 C.ar    1  UNL1        0.1748
      3 C          61.3333   86.8838   11.2419 C.ar    1  UNL1        0.0708
      4 C          60.3365   87.5267   10.3236 C.ar    1  UNL1        0.1621
      5 F          59.2590   88.4068   10.8843 F       1  UNL1       -0.2026
      6 C          60.4173   87.2894    8.8447 C.ar    1  UNL1        0.1550
      7 C          61.4948   86.4093    8.2841 C.ar    1  UNL1        0.0553
      8 C          62.4915   85.7664    9.2023 C.ar    1  UNL1        0.1759
      9 F          63.5690   84.8863    8.6417 F       1  UNL1       -0.2009
     10 S          59.4205   87.9322    7.9264 S.O2    1  UNL1        0.0780
     11 O          59.7777   89.2791    8.4817 O.2     1  UNL1       -0.1498
     12 O          59.0634   86.5853    7.3711 O.2     1  UNL1       -0.1498
     13 N          58.4238   88.5751    7.0082 N.pl3   1  UNL1       -0.1835
     14 H          57.5017   88.2327    6.9652 H       1  UNL1        0.1767
     15 C          58.8319   89.7397    6.1553 C.ar    1  UNL1        0.2360
     16 N          60.2738   89.9331    5.7903 N.ar    1  UNL1       -0.2110
     17 C          60.6820   91.0977    4.9375 C.ar    1  UNL1        0.1035
     18 C          59.6480   92.0689    4.4497 C.ar    1  UNL1        0.0414
     19 C          58.2060   91.8754    4.8148 C.ar    1  UNL1        0.1035
     20 N          57.7980   90.7109    5.6676 N.ar    1  UNL1       -0.2110
     21 C          63.0161   83.6465   13.5121 C.ar    1  UNL1        0.0354
     22 C          62.8131   82.2317   13.9671 C.ar    1  UNL1        0.0144
     23 C          62.7985   81.1162   12.9643 C.ar    1  UNL1        0.0579
     24 CL         62.5955   79.7014   13.4193 Cl      1  UNL1       -0.0822
     25 C          62.9870   81.4155   11.5066 C.ar    1  UNL1        0.0145
     26 C          63.1900   82.8304   11.0517 C.ar    1  UNL1        0.0384
     27 C          63.2045   83.9459   12.0544 C.ar    1  UNL1        0.1454
     28 N          64.4870   89.3519   13.7883 N.pl3   1  UNL1       -0.3400
     29 C          63.9502   88.6757   15.0150 C.ar    1  UNL1        0.1674
     30 N          63.7391   89.3171   16.3544 N.ar    1  UNL1       -0.0623
     31 O          63.1887   88.2772   17.2847 O.2     1  UNL1       -0.3522
     32 C          63.0598   86.9930   16.5203 C.ar    1  UNL1        0.1781
     33 C          62.5746   85.6312   16.9204 C.ar    1  UNL1        0.0403
     34 C          62.5600   84.5158   15.9176 C.ar    1  UNL1        0.0033
     35 C          63.0307   84.7621   14.5149 C.ar    1  UNL1        0.0033
     36 C          63.5159   86.1239   14.1148 C.ar    1  UNL1        0.0061
     37 C          63.5304   87.2393   15.1175 C.ar    1  UNL1        0.0715
     38 H          64.7365   90.3038   13.8203 H       1  UNL1        0.1438
     39 H          64.5898   88.8439   12.9513 H       1  UNL1        0.1438
@<TRIPOS>BOND
     1    28    29    1
     2    29    30   ar
     3    30    31   ar
     4    31    32   ar
     5    32    33   ar
     6    33    34   ar
     7    34    35   ar
     8    35    21    1
     9    21    22   ar
    10    22    23   ar
    11    23    24    1
    12    23    25   ar
    13    25    26   ar
    14    26    27   ar
    15    27     1    1
    16     1     2    1
    17     2     3   ar
    18     3     4   ar
    19     4     5    1
    20     4     6   ar
    21     6    10    1
    22    10    11    2
    23    10    12    2
    24    10    13    1
    25    13    15    1
    26    15    16   ar
    27    16    17   ar
    28    17    18   ar
    29    18    19   ar
    30    19    20   ar
    31     6     7   ar
    32     7     8   ar
    33     8     9    1
    34    35    36   ar
    35    36    37   ar
    36    37    29   ar
    37    37    32   ar
    38    27    21   ar
    39     8     2   ar
    40    20    15   ar
    41    28    38    1
    42    28    39    1
    43    13    14    1
@<TRIPOS>MOLECULE
*****
 39 43 0 0 0
SMALL
GASTEIGER

@<TRIPOS>ATOM
      1 O          63.2203   91.8648   13.0853 O.3     1  UNL1       -0.4511
      2 C          62.5634   90.8324   12.2178 C.ar    1  UNL1        0.1748
      3 C          61.3212   90.1365   12.6897 C.ar    1  UNL1        0.0708
      4 C          60.6643   89.1041   11.8222 C.ar    1  UNL1        0.1621
      5 F          59.4221   88.4082   12.2941 F       1  UNL1       -0.2026
      6 C          61.2496   88.7676   10.4827 C.ar    1  UNL1        0.1550
      7 C          62.4918   89.4635   10.0108 C.ar    1  UNL1        0.0553
      8 C          63.1487   90.4958   10.8783 C.ar    1  UNL1        0.1759
      9 F          64.3908   91.1917   10.4064 F       1  UNL1       -0.2009
     10 S          60.5927   87.7352    9.6151 S.O2    1  UNL1        0.0780
     11 O          60.8636   86.6888   10.6552 O.2     1  UNL1       -0.1498
     12 O          60.3218   88.7816    8.5750 O.2     1  UNL1       -0.1498
     13 N          59.9358   86.7028    8.7476 N.pl3   1  UNL1       -0.1835
     14 H          58.9573   86.5953    8.7652 H       1  UNL1        0.1767
     15 C          60.7697   85.8341    7.8531 C.ar    1  UNL1        0.2360
     16 N          62.2404   85.6872    8.1091 N.ar    1  UNL1       -0.2110
     17 C          63.0743   84.8185    7.2147 C.ar    1  UNL1        0.1035
     18 C          62.4375   84.0968    6.0642 C.ar    1  UNL1        0.0414
     19 C          60.9668   84.2437    5.8082 C.ar    1  UNL1        0.1035
     20 N          60.1330   85.1124    6.7026 N.ar    1  UNL1       -0.2110
     21 C          65.4162   90.9592   14.1380 C.ar    1  UNL1        0.0354
     22 C          66.9109   90.9965   14.2584 C.ar    1  UNL1        0.0144
     23 C          67.7045   91.9770   13.4466 C.ar    1  UNL1        0.0579
     24 CL         69.1991   92.0144   13.5670 Cl      1  UNL1       -0.0822
     25 C          67.0033   92.9200   12.5143 C.ar    1  UNL1        0.0145
     26 C          65.5086   92.8826   12.3939 C.ar    1  UNL1        0.0384
     27 C          64.7151   91.9022   13.2057 C.ar    1  UNL1        0.1454
     28 N          64.4678   85.1431   14.3943 N.pl3   1  UNL1       -0.3400
     29 C          63.7729   86.0405   15.3750 C.ar    1  UNL1        0.1674
     30 N          62.8276   85.6028   16.4543 N.ar    1  UNL1       -0.0623
     31 O          62.3719   86.8249   17.1949 O.2     1  UNL1       -0.3522
     32 C          63.0355   88.0180   16.5735 C.ar    1  UNL1        0.1781
     33 C          62.9631   89.4832   16.8864 C.ar    1  UNL1        0.0403
     34 C          63.7567   90.4635   16.0746 C.ar    1  UNL1        0.0033
     35 C          64.6226   89.9787   14.9498 C.ar    1  UNL1        0.0033
     36 C          64.6949   88.5135   14.6369 C.ar    1  UNL1        0.0061
     37 C          63.9014   87.5332   15.4487 C.ar    1  UNL1        0.0715
     38 H          64.3186   84.1705   14.4257 H       1  UNL1        0.1438
     39 H          65.0730   85.5268   13.7192 H       1  UNL1        0.1438
@<TRIPOS>BOND
     1    28    29    1
     2    29    30   ar
     3    30    31   ar
     4    31    32   ar
     5    32    33   ar
     6    33    34   ar
     7    34    35   ar
     8    35    21    1
     9    21    22   ar
    10    22    23   ar
    11    23    24    1
    12    23    25   ar
    13    25    26   ar
    14    26    27   ar
    15    27     1    1
    16     1     2    1
    17     2     3   ar
    18     3     4   ar
    19     4     5    1
    20     4     6   ar
    21     6    10    1
    22    10    11    2
    23    10    12    2
    24    10    13    1
    25    13    15    1
    26    15    16   ar
    27    16    17   ar
    28    17    18   ar
    29    18    19   ar
    30    19    20   ar
    31     6     7   ar
    32     7     8   ar
    33     8     9    1
    34    35    36   ar
    35    36    37   ar
    36    37    29   ar
    37    37    32   ar
    38    27    21   ar
    39     8     2   ar
    40    20    15   ar
    41    28    38    1
    42    28    39    1
    43    13    14    1
@<TRIPOS>MOLECULE
*****
 39 43 0 0 0
SMALL
GASTEIGER

@<TRIPOS>ATOM
      1 O          62.5195   88.0099   12.4392 O.3     1  UNL1       -0.4511
      2 C          63.3268   89.2708   12.3476 C.ar    1  UNL1        0.1748
      3 C          64.2103   89.6801   13.4887 C.ar    1  UNL1        0.0708
      4 C          65.0177   90.9410   13.3971 C.ar    1  UNL1        0.1621
      5 F          65.9011   91.3504   14.5381 F       1  UNL1       -0.2026
      6 C          64.9416   91.7925   12.1645 C.ar    1  UNL1        0.1550
      7 C          64.0582   91.3831   11.0235 C.ar    1  UNL1        0.0553
      8 C          63.2508   90.1222   11.1151 C.ar    1  UNL1        0.1759
      9 F          62.3673   89.7128    9.9741 F       1  UNL1       -0.2009
     10 S          65.7490   93.0533   12.0730 S.O2    1  UNL1        0.0780
     11 O          65.6463   93.2270   13.5593 O.2     1  UNL1       -0.1498
     12 O          65.8516   92.8797   10.5866 O.2     1  UNL1       -0.1498
     13 N          66.5564   94.3142   11.9814 N.pl3   1  UNL1       -0.1835
     14 H          67.1070   94.6026   12.7448 H       1  UNL1        0.1767
     15 C          66.5247   95.1356   10.7266 C.ar    1  UNL1        0.2360
     16 N          65.3560   96.0333   10.4472 N.ar    1  UNL1       -0.2110
     17 C          65.3243   96.8547    9.1924 C.ar    1  UNL1        0.1035
     18 C          66.4614   96.7783    8.2171 C.ar    1  UNL1        0.0414
     19 C          67.6302   95.8805    8.4966 C.ar    1  UNL1        0.1035
     20 N          67.6618   95.0591    9.7513 N.ar    1  UNL1       -0.2110
     21 C          63.1787   85.5089   12.1929 C.ar    1  UNL1        0.0354
     22 C          63.7926   84.2651   12.7637 C.ar    1  UNL1        0.0144
     23 C          64.3612   84.2782   14.1517 C.ar    1  UNL1        0.0579
     24 CL         64.9751   83.0343   14.7225 Cl      1  UNL1       -0.0822
     25 C          64.3159   85.5352   14.9689 C.ar    1  UNL1        0.0145
     26 C          63.7019   86.7791   14.3981 C.ar    1  UNL1        0.0384
     27 C          63.1334   86.7660   13.0101 C.ar    1  UNL1        0.1454
     28 N          58.6395   87.8345    9.2300 N.pl3   1  UNL1       -0.3400
     29 C          59.6009   86.9379    8.5077 C.ar    1  UNL1        0.1674
     30 N          59.5304   86.5542    7.0593 N.ar    1  UNL1       -0.0623
     31 O          60.6875   85.6468    6.7634 O.2     1  UNL1       -0.3522
     32 C          61.4731   85.4696    8.0288 C.ar    1  UNL1        0.1781
     33 C          62.7132   84.6847    8.3388 C.ar    1  UNL1        0.0403
     34 C          63.2817   84.6979    9.7268 C.ar    1  UNL1        0.0033
     35 C          62.6102   85.4958   10.8048 C.ar    1  UNL1        0.0033
     36 C          61.3700   86.2807   10.4949 C.ar    1  UNL1        0.0061
     37 C          60.8015   86.2675    9.1069 C.ar    1  UNL1        0.0715
     38 H          57.8774   88.2294    8.7478 H       1  UNL1        0.1438
     39 H          58.7705   88.0280   10.1864 H       1  UNL1        0.1438
@<TRIPOS>BOND
     1    28    29    1
     2    29    30   ar
     3    30    31   ar
     4    31    32   ar
     5    32    33   ar
     6    33    34   ar
     7    34    35   ar
     8    35    21    1
     9    21    22   ar
    10    22    23   ar
    11    23    24    1
    12    23    25   ar
    13    25    26   ar
    14    26    27   ar
    15    27     1    1
    16     1     2    1
    17     2     3   ar
    18     3     4   ar
    19     4     5    1
    20     4     6   ar
    21     6    10    1
    22    10    11    2
    23    10    12    2
    24    10    13    1
    25    13    15    1
    26    15    16   ar
    27    16    17   ar
    28    17    18   ar
    29    18    19   ar
    30    19    20   ar
    31     6     7   ar
    32     7     8   ar
    33     8     9    1
    34    35    36   ar
    35    36    37   ar
    36    37    29   ar
    37    37    32   ar
    38    27    21   ar
    39     8     2   ar
    40    20    15   ar
    41    28    38    1
    42    28    39    1
    43    13    14    1
