@<TRIPOS>MOLECULE
*****
 38 42 0 0 0
SMALL
GASTEIGER

@<TRIPOS>ATOM
      1 C          63.2607   90.3309   12.7668 C.3     1  UNL1        0.1225
      2 O          62.8441   91.0343   11.5092 O.3     1  UNL1       -0.3559
      3 C          62.4305   90.2387   10.3067 C.3     1  UNL1        0.1441
      4 C          62.4334   88.7397   10.3619 C.3     1  UNL1        0.0589
      5 C          62.8500   88.0363   11.6196 C.3     1  UNL1        0.1466
      6 C          62.8529   86.5373   11.6748 C.ar    1  UNL1        0.0618
      7 C          62.4393   85.7417   10.4723 C.ar    1  UNL1        0.1407
      8 F          61.9777   86.1037    9.0917 F       1  UNL1       -0.2043
      9 C          62.4422   84.2428   10.5275 C.ar    1  UNL1        0.0319
     10 C          62.8588   83.5394   11.7852 C.ar    1  UNL1        0.0351
     11 C          63.2724   84.3350   12.9876 C.ar    1  UNL1        0.1737
     12 F          63.6890   83.6316   14.2453 F       1  UNL1       -0.2010
     13 C          63.2695   85.8339   12.9324 C.ar    1  UNL1        0.1655
     14 O          63.6831   86.6295   14.1349 O.3     1  UNL1       -0.4732
     15 C          63.6802   88.1285   14.0797 C.3     1  UNL1        0.2098
     16 C          63.2636   88.8319   12.8220 C.3     1  UNL1        0.0957
     17 S          62.4364   87.2407   10.4171 S.O2    1  UNL1        0.0094
     18 O          62.9262   87.2306    9.7883 O.2     1  UNL1       -0.1684
     19 O          61.1097   86.6584   10.8060 O.2     1  UNL1       -0.1684
     20 C          62.0227   86.4451    9.2147 C.ar    1  UNL1        0.1059
     21 C          60.5831   86.4148    8.7943 C.ar    1  UNL1        0.0192
     22 C          60.1694   85.6192    7.5918 C.ar    1  UNL1        0.0127
     23 C          61.1954   84.8538    6.8098 C.ar    1  UNL1        0.0578
     24 CL         60.7818   84.0582    5.6073 Cl      1  UNL1       -0.0822
     25 C          62.6350   84.8841    7.2301 C.ar    1  UNL1        0.0127
     26 C          63.0486   85.6797    8.4326 C.ar    1  UNL1        0.0192
     27 C          63.6743   91.1265   13.9693 C.3     1  UNL1        0.0550
     28 C          65.0770   91.0233   14.4906 C.3     1  UNL1        0.1534
     29 O          67.1879   91.1149   14.6793 O.2     1  UNL1       -0.1729
     30 S          66.1566   91.8916   13.9158 S.O2    1  UNL1       -0.0086
     31 O          65.1253   92.6683   13.1522 O.2     1  UNL1       -0.1729
     32 C          67.2362   92.7600   13.3409 C.3     1  UNL1        0.1664
     33 C          67.3520   92.9276   11.8548 C.3     1  UNL1        0.0779
     34 C          68.0268   91.9776   10.9104 C.3     1  UNL1        0.0189
     35 C          67.9053   92.5375    9.5241 C.3     1  UNL1        0.0185
     36 C          67.1554   93.8337    9.6118 C.3     1  UNL1        0.0686
     37 N          66.8135   94.0748   11.0523 N.3     1  UNL1       -0.2971
     38 H          65.8010   94.1296   11.1632 H       1  UNL1        0.1233
@<TRIPOS>BOND
     1    29    30    2
     2    30    31    2
     3    30    28    1
     4    28    27    1
     5     1    27    1
     6     1     2    1
     7     2     3    1
     8     3     4    1
     9     4     5    1
    10     5    17    1
    11    17    18    2
    12    17    19    2
    13    17    20    1
    14    20    21   ar
    15    21    22   ar
    16    22    23   ar
    17    23    24    1
    18    23    25   ar
    19    25    26   ar
    20     5     6    1
    21     6     7   ar
    22     7     8    1
    23     7     9   ar
    24     9    10   ar
    25    10    11   ar
    26    11    12    1
    27    11    13   ar
    28    13    14    1
    29    14    15    1
    30    16    15    1
    31    30    32    1
    32    33    32    1
    33    33    34    1
    34    34    35    1
    35    35    36    1
    36    36    37    1
    37    16     1    1
    38    37    33    1
    39    16     5    1
    40    26    20   ar
    41    13     6   ar
    42    37    38    1
@<TRIPOS>MOLECULE
*****
 38 42 0 0 0
SMALL
GASTEIGER

@<TRIPOS>ATOM
      1 C          64.0753   89.6104   13.8928 C.3     1  UNL1        0.1225
      2 O          64.6748   88.7337   14.9520 O.3     1  UNL1       -0.3559
      3 C          64.5709   87.2417   14.8379 C.3     1  UNL1        0.1441
      4 C          63.8676   86.6263   13.6646 C.3     1  UNL1        0.0589
      5 C          63.2682   87.5030   12.6053 C.3     1  UNL1        0.1466
      6 C          62.5649   86.8877   11.4320 C.ar    1  UNL1        0.0618
      7 C          62.4611   85.3957   11.3179 C.ar    1  UNL1        0.1407
      8 F          62.9300   84.2505   12.1658 F       1  UNL1       -0.2043
      9 C          61.7578   84.7804   10.1445 C.ar    1  UNL1        0.0319
     10 C          61.1583   85.6570    9.0853 C.ar    1  UNL1        0.0351
     11 C          61.2622   87.1490    9.1994 C.ar    1  UNL1        0.1737
     12 F          60.6627   88.0258    8.1401 F       1  UNL1       -0.2010
     13 C          61.9655   87.7644   10.3727 C.ar    1  UNL1        0.1655
     14 O          62.0693   89.2565   10.4868 O.3     1  UNL1       -0.4732
     15 C          62.7726   89.8718   11.6602 C.3     1  UNL1        0.2098
     16 C          63.3720   88.9950   12.7194 C.3     1  UNL1        0.0957
     17 S          63.1643   86.0110   12.4912 S.O2    1  UNL1        0.0094
     18 O          63.8403   85.5886   12.4787 O.2     1  UNL1       -0.1684
     19 O          61.6878   85.7535   12.4307 O.2     1  UNL1       -0.1684
     20 C          63.0604   84.5189   12.3771 C.ar    1  UNL1        0.1059
     21 C          62.1761   83.7546   13.3171 C.ar    1  UNL1        0.0192
     22 C          62.0722   82.2625   13.2030 C.ar    1  UNL1        0.0127
     23 C          62.8527   81.5348   12.1489 C.ar    1  UNL1        0.0578
     24 CL         62.7488   80.0428   12.0347 Cl      1  UNL1       -0.0822
     25 C          63.7371   82.2992   11.2088 C.ar    1  UNL1        0.0127
     26 C          63.8409   83.7912   11.3229 C.ar    1  UNL1        0.0192
     27 C          64.1792   91.1025   14.0069 C.3     1  UNL1        0.0550
     28 C          65.5257   91.7633   14.0000 C.3     1  UNL1        0.1534
     29 O          65.4993   91.9248   11.8851 O.2     1  UNL1       -0.1729
     30 S          65.8197   92.8565   13.0160 S.O2    1  UNL1       -0.0086
     31 O          66.1401   93.7883   14.1470 O.2     1  UNL1       -0.1729
     32 C          66.1137   93.9499   12.0320 C.3     1  UNL1        0.1664
     33 C          66.9608   93.6667   10.8270 C.3     1  UNL1        0.0779
     34 C          66.9466   94.4351    9.5389 C.3     1  UNL1        0.0189
     35 C          67.9479   93.8086    8.6143 C.3     1  UNL1        0.0185
     36 C          68.5810   92.6529    9.3310 C.3     1  UNL1        0.0686
     37 N          67.9709   92.5651   10.6985 N.3     1  UNL1       -0.2971
     38 H          68.6951   92.6751   11.4083 H       1  UNL1        0.1233
@<TRIPOS>BOND
     1    29    30    2
     2    30    31    2
     3    30    28    1
     4    28    27    1
     5     1    27    1
     6     1     2    1
     7     2     3    1
     8     3     4    1
     9     4     5    1
    10     5    17    1
    11    17    18    2
    12    17    19    2
    13    17    20    1
    14    20    21   ar
    15    21    22   ar
    16    22    23   ar
    17    23    24    1
    18    23    25   ar
    19    25    26   ar
    20     5     6    1
    21     6     7   ar
    22     7     8    1
    23     7     9   ar
    24     9    10   ar
    25    10    11   ar
    26    11    12    1
    27    11    13   ar
    28    13    14    1
    29    14    15    1
    30    16    15    1
    31    30    32    1
    32    33    32    1
    33    33    34    1
    34    34    35    1
    35    35    36    1
    36    36    37    1
    37    16     1    1
    38    37    33    1
    39    16     5    1
    40    26    20   ar
    41    13     6   ar
    42    37    38    1
@<TRIPOS>MOLECULE
*****
 38 42 0 0 0
SMALL
GASTEIGER

@<TRIPOS>ATOM
      1 C          59.5801   88.6134    7.8374 C.3     1  UNL1        0.1225
      2 O          59.3174   87.2477    7.2757 O.3     1  UNL1       -0.3559
      3 C          59.9461   86.0424    7.9098 C.3     1  UNL1        0.1441
      4 C          60.8373   86.2029    9.1056 C.3     1  UNL1        0.0589
      5 C          61.1000   87.5687    9.6673 C.3     1  UNL1        0.1466
      6 C          61.9912   87.7292   10.8630 C.ar    1  UNL1        0.0618
      7 C          62.6199   86.5239   11.4971 C.ar    1  UNL1        0.1407
      8 F          62.5774   85.0526   11.2077 F       1  UNL1       -0.2043
      9 C          63.5112   86.6844   12.6929 C.ar    1  UNL1        0.0319
     10 C          63.7738   88.0502   13.2546 C.ar    1  UNL1        0.0351
     11 C          63.1452   89.2555   12.6205 C.ar    1  UNL1        0.1737
     12 F          63.4078   90.6214   13.1822 F       1  UNL1       -0.2010
     13 C          62.2539   89.0950   11.4248 C.ar    1  UNL1        0.1655
     14 O          61.6252   90.3004   10.7907 O.3     1  UNL1       -0.4732
     15 C          60.7340   90.1399    9.5949 C.3     1  UNL1        0.2098
     16 C          60.4713   88.7740    9.0332 C.3     1  UNL1        0.0957
     17 S          61.7286   86.3634   10.3013 S.O2    1  UNL1        0.0094
     18 O          61.4267   86.1032   10.9917 O.2     1  UNL1       -0.1684
     19 O          62.8296   85.9877    9.3543 O.2     1  UNL1       -0.1684
     20 C          62.3573   85.1581   10.9354 C.ar    1  UNL1        0.1059
     21 C          61.8942   84.6926   12.2840 C.ar    1  UNL1        0.0192
     22 C          62.5229   83.4872   12.9180 C.ar    1  UNL1        0.0127
     23 C          63.6147   82.7474   12.2034 C.ar    1  UNL1        0.0578
     24 CL         64.2434   81.5421   12.8374 Cl      1  UNL1       -0.0822
     25 C          64.0778   83.2130   10.8547 C.ar    1  UNL1        0.0127
     26 C          63.4491   84.4183   10.2208 C.ar    1  UNL1        0.0192
     27 C          58.9514   89.8188    7.2034 C.3     1  UNL1        0.0550
     28 C          58.9225   89.9512    5.7095 C.3     1  UNL1        0.1534
     29 O          57.7022   91.5426    5.0179 O.2     1  UNL1       -0.1729
     30 S          59.1787   91.2834    5.0696 S.O2    1  UNL1       -0.0086
     31 O          60.6552   91.0243    5.1213 O.2     1  UNL1       -0.1729
     32 C          59.4350   92.6157    4.4296 C.3     1  UNL1        0.1664
     33 C          60.1439   92.6897    3.1098 C.3     1  UNL1        0.0779
     34 C          59.5171   93.0296    1.7901 C.3     1  UNL1        0.0189
     35 C          60.5899   92.9869    0.7426 C.3     1  UNL1        0.0185
     36 C          61.8799   92.6206    1.4149 C.3     1  UNL1        0.0686
     37 N          61.6042   92.4370    2.8779 N.3     1  UNL1       -0.2971
     38 H          62.1603   93.0978    3.4205 H       1  UNL1        0.1233
@<TRIPOS>BOND
     1    29    30    2
     2    30    31    2
     3    30    28    1
     4    28    27    1
     5     1    27    1
     6     1     2    1
     7     2     3    1
     8     3     4    1
     9     4     5    1
    10     5    17    1
    11    17    18    2
    12    17    19    2
    13    17    20    1
    14    20    21   ar
    15    21    22   ar
    16    22    23   ar
    17    23    24    1
    18    23    25   ar
    19    25    26   ar
    20     5     6    1
    21     6     7   ar
    22     7     8    1
    23     7     9   ar
    24     9    10   ar
    25    10    11   ar
    26    11    12    1
    27    11    13   ar
    28    13    14    1
    29    14    15    1
    30    16    15    1
    31    30    32    1
    32    33    32    1
    33    33    34    1
    34    34    35    1
    35    35    36    1
    36    36    37    1
    37    16     1    1
    38    37    33    1
    39    16     5    1
    40    26    20   ar
    41    13     6   ar
    42    37    38    1
@<TRIPOS>MOLECULE
*****
 38 42 0 0 0
SMALL
GASTEIGER

@<TRIPOS>ATOM
      1 C          60.4771   92.9518    1.9302 C.3     1  UNL1        0.1225
      2 O          61.9493   92.8782    2.2078 O.3     1  UNL1       -0.3559
      3 C          62.9338   93.1099    1.1001 C.3     1  UNL1        0.1441
      4 C          62.4461   93.4150   -0.2852 C.3     1  UNL1        0.0589
      5 C          60.9738   93.4886   -0.5628 C.3     1  UNL1        0.1466
      6 C          60.4861   93.7938   -1.9481 C.ar    1  UNL1        0.0618
      7 C          61.4706   94.0254   -3.0558 C.ar    1  UNL1        0.1407
      8 F          62.9686   94.0290   -3.1347 F       1  UNL1       -0.2043
      9 C          60.9829   94.3306   -4.4410 C.ar    1  UNL1        0.0319
     10 C          59.5107   94.4041   -4.7186 C.ar    1  UNL1        0.0351
     11 C          58.5262   94.1725   -3.6109 C.ar    1  UNL1        0.1737
     12 F          57.0539   94.2461   -3.8884 F       1  UNL1       -0.2010
     13 C          59.0139   93.8673   -2.2256 C.ar    1  UNL1        0.1655
     14 O          58.0293   93.6357   -1.1179 O.3     1  UNL1       -0.4732
     15 C          58.5170   93.3305    0.2674 C.3     1  UNL1        0.2098
     16 C          59.9893   93.2570    0.5449 C.3     1  UNL1        0.0957
     17 S          61.9583   93.7202   -1.6705 S.O2    1  UNL1        0.0094
     18 O          62.1125   93.1158   -2.1668 O.2     1  UNL1       -0.1684
     19 O          62.3860   95.1459   -1.4838 O.2     1  UNL1       -0.1684
     20 C          62.9429   93.9519   -2.7782 C.ar    1  UNL1        0.1059
     21 C          63.3841   95.3466   -3.1100 C.ar    1  UNL1        0.0192
     22 C          64.3687   95.5783   -4.2177 C.ar    1  UNL1        0.0127
     23 C          64.9120   94.4152   -4.9937 C.ar    1  UNL1        0.0578
     24 CL         65.8965   94.6469   -6.1014 Cl      1  UNL1       -0.0822
     25 C          64.4707   93.0205   -4.6619 C.ar    1  UNL1        0.0127
     26 C          63.4862   92.7889   -3.5542 C.ar    1  UNL1        0.0192
     27 C          59.4925   92.7201    3.0379 C.3     1  UNL1        0.0550
     28 C          59.9725   92.2717    4.3864 C.3     1  UNL1        0.1534
     29 O          57.9431   91.9978    4.9397 O.2     1  UNL1       -0.1729
     30 S          59.2116   91.2236    5.1430 S.O2    1  UNL1       -0.0086
     31 O          60.4801   90.4493    5.3463 O.2     1  UNL1       -0.1729
     32 C          58.4507   90.1754    5.8996 C.3     1  UNL1        0.1664
     33 C          59.1359   89.3755    6.9676 C.3     1  UNL1        0.0779
     34 C          59.0791   87.8850    7.1260 C.3     1  UNL1        0.0189
     35 C          59.9064   87.5139    8.3209 C.3     1  UNL1        0.0185
     36 C          60.4745   88.7752    8.9011 C.3     1  UNL1        0.0686
     37 N          59.9984   89.9257    8.0646 N.3     1  UNL1       -0.2971
     38 H          60.7977   90.4162    7.6635 H       1  UNL1        0.1233
@<TRIPOS>BOND
     1    29    30    2
     2    30    31    2
     3    30    28    1
     4    28    27    1
     5     1    27    1
     6     1     2    1
     7     2     3    1
     8     3     4    1
     9     4     5    1
    10     5    17    1
    11    17    18    2
    12    17    19    2
    13    17    20    1
    14    20    21   ar
    15    21    22   ar
    16    22    23   ar
    17    23    24    1
    18    23    25   ar
    19    25    26   ar
    20     5     6    1
    21     6     7   ar
    22     7     8    1
    23     7     9   ar
    24     9    10   ar
    25    10    11   ar
    26    11    12    1
    27    11    13   ar
    28    13    14    1
    29    14    15    1
    30    16    15    1
    31    30    32    1
    32    33    32    1
    33    33    34    1
    34    34    35    1
    35    35    36    1
    36    36    37    1
    37    16     1    1
    38    37    33    1
    39    16     5    1
    40    26    20   ar
    41    13     6   ar
    42    37    38    1
