@<TRIPOS>MOLECULE
*****
 21 23 0 0 0
SMALL
GASTEIGER

@<TRIPOS>ATOM
      1 C          63.0506   89.6685   12.5192 C.ar    1  UNL1        0.1386
      2 C          63.7207   89.1414   13.7534 C.ar    1  UNL1        0.0384
      3 C          64.8661   89.8931   14.3640 C.ar    1  UNL1        0.0207
      4 C          65.3415   91.1719   13.7405 C.ar    1  UNL1        0.0657
      5 C          64.6714   91.6990   12.5064 C.ar    1  UNL1        0.0207
      6 C          63.5259   90.9473   11.8957 C.ar    1  UNL1        0.0384
      7 N          66.4869   91.9236   14.3512 N.ar    1  UNL1       -0.2864
      8 C          66.4399   92.7257   15.6179 C.ar    1  UNL1        0.1022
      9 C          67.8045   93.3030   15.8520 C.ar    1  UNL1        0.1196
     10 N          68.6949   92.8577   14.7299 N.ar    1  UNL1       -0.2220
     11 C          67.8806   92.0052   13.8024 C.ar    1  UNL1        0.1828
     12 O          61.9052   88.9169   11.9085 O.3     1  UNL1       -0.4755
     13 C          61.9259   88.5752   10.4481 C.3     1  UNL1        0.2057
     14 C          62.0001   87.1411   10.0143 C.3     1  UNL1        0.0521
     15 C          61.6114   86.0487   10.9658 C.3     1  UNL1        0.0318
     16 C          64.2166   83.1239   10.3262 C.ar    1  UNL1        0.0204
     17 C          64.4236   82.6182   11.7231 C.ar    1  UNL1        0.0989
     18 N          63.6933   83.2560   12.8676 N.ar    1  UNL1       -0.2426
     19 C          62.7559   84.3995   12.6152 C.ar    1  UNL1        0.0946
     20 C          62.5488   84.9052   11.2183 C.ar    1  UNL1       -0.0029
     21 C          63.2792   84.2674   10.0738 C.ar    1  UNL1       -0.0011
@<TRIPOS>BOND
     1    16    17   ar
     2    17    18   ar
     3    18    19   ar
     4    19    20   ar
     5    20    15    1
     6    15    14    1
     7    14    13    1
     8    13    12    1
     9    12     1    1
    10     1     2   ar
    11     2     3   ar
    12     3     4   ar
    13     4     7    1
    14     7     8   ar
    15     8     9   ar
    16     9    10   ar
    17    10    11   ar
    18     4     5   ar
    19     5     6   ar
    20    20    21   ar
    21    21    16   ar
    22     6     1   ar
    23    11     7   ar
@<TRIPOS>MOLECULE
*****
 21 23 0 0 0
SMALL
GASTEIGER

@<TRIPOS>ATOM
      1 C          63.3939   84.2110   11.3610 C.ar    1  UNL1        0.1386
      2 C          62.3935   85.0741   12.0711 C.ar    1  UNL1        0.0384
      3 C          61.5311   86.0206   11.2900 C.ar    1  UNL1        0.0207
      4 C          61.6690   86.1041    9.7987 C.ar    1  UNL1        0.0657
      5 C          62.6693   85.2411    9.0885 C.ar    1  UNL1        0.0207
      6 C          63.5319   84.2944    9.8696 C.ar    1  UNL1        0.0384
      7 N          60.8066   87.0506    9.0176 N.ar    1  UNL1       -0.2864
      8 C          59.8538   86.6752    7.9215 C.ar    1  UNL1        0.1022
      9 C          59.2038   87.9315    7.4218 C.ar    1  UNL1        0.1196
     10 N          59.7549   89.0832    8.2092 N.ar    1  UNL1       -0.2220
     11 C          60.7454   88.5389    9.1953 C.ar    1  UNL1        0.1828
     12 O          64.2564   83.2644   12.1421 O.3     1  UNL1       -0.4755
     13 C          63.8178   82.7950   13.4975 C.3     1  UNL1        0.2057
     14 C          64.2444   83.5442   14.7250 C.3     1  UNL1        0.0521
     15 C          64.8434   84.9135   14.5976 C.3     1  UNL1        0.0318
     16 C          62.8585   86.9987   17.3293 C.ar    1  UNL1        0.0204
     17 C          62.9990   88.3883   16.7825 C.ar    1  UNL1        0.0989
     18 N          63.7543   88.6197   15.5073 N.ar    1  UNL1       -0.2426
     19 C          64.3691   87.4615   14.7790 C.ar    1  UNL1        0.0946
     20 C          64.2286   86.0718   15.3259 C.ar    1  UNL1       -0.0029
     21 C          63.4733   85.8404   16.6011 C.ar    1  UNL1       -0.0011
@<TRIPOS>BOND
     1    16    17   ar
     2    17    18   ar
     3    18    19   ar
     4    19    20   ar
     5    20    15    1
     6    15    14    1
     7    14    13    1
     8    13    12    1
     9    12     1    1
    10     1     2   ar
    11     2     3   ar
    12     3     4   ar
    13     4     7    1
    14     7     8   ar
    15     8     9   ar
    16     9    10   ar
    17    10    11   ar
    18     4     5   ar
    19     5     6   ar
    20    20    21   ar
    21    21    16   ar
    22     6     1   ar
    23    11     7   ar
@<TRIPOS>MOLECULE
*****
 21 23 0 0 0
SMALL
GASTEIGER

@<TRIPOS>ATOM
      1 C          63.1208   89.9607   12.7861 C.ar    1  UNL1        0.1386
      2 C          63.7631   89.4706   14.0500 C.ar    1  UNL1        0.0384
      3 C          64.9714   90.1707   14.5976 C.ar    1  UNL1        0.0207
      4 C          65.5374   91.3610   13.8814 C.ar    1  UNL1        0.0657
      5 C          64.8951   91.8511   12.6176 C.ar    1  UNL1        0.0207
      6 C          63.6868   91.1510   12.0699 C.ar    1  UNL1        0.0384
      7 N          66.7456   92.0611   14.4290 N.ar    1  UNL1       -0.2864
      8 C          66.7722   92.9728   15.6199 C.ar    1  UNL1        0.1022
      9 C          68.1825   93.4477   15.8088 C.ar    1  UNL1        0.1196
     10 N          69.0276   92.8294   14.7346 N.ar    1  UNL1       -0.2220
     11 C          68.1396   91.9725   13.8819 C.ar    1  UNL1        0.1828
     12 O          61.9126   89.2606   12.2385 O.3     1  UNL1       -0.4755
     13 C          61.0698   89.9269   11.1918 C.3     1  UNL1        0.2057
     14 C          60.7067   89.1872    9.9384 C.3     1  UNL1        0.0521
     15 C          60.3288   87.7372   10.0061 C.3     1  UNL1        0.0318
     16 C          62.8755   85.3479    8.1205 C.ar    1  UNL1        0.0204
     17 C          62.0101   84.8314    7.0095 C.ar    1  UNL1        0.0989
     18 N          60.5843   85.2835    6.8974 N.ar    1  UNL1       -0.2426
     19 C          60.0238   86.2521    7.8962 C.ar    1  UNL1        0.0946
     20 C          60.8892   86.7685    9.0072 C.ar    1  UNL1       -0.0029
     21 C          62.3151   86.3164    9.1194 C.ar    1  UNL1       -0.0011
@<TRIPOS>BOND
     1    16    17   ar
     2    17    18   ar
     3    18    19   ar
     4    19    20   ar
     5    20    15    1
     6    15    14    1
     7    14    13    1
     8    13    12    1
     9    12     1    1
    10     1     2   ar
    11     2     3   ar
    12     3     4   ar
    13     4     7    1
    14     7     8   ar
    15     8     9   ar
    16     9    10   ar
    17    10    11   ar
    18     4     5   ar
    19     5     6   ar
    20    20    21   ar
    21    21    16   ar
    22     6     1   ar
    23    11     7   ar
@<TRIPOS>MOLECULE
*****
 21 23 0 0 0
SMALL
GASTEIGER

@<TRIPOS>ATOM
      1 C          62.1239   89.1091   11.4524 C.ar    1  UNL1        0.1386
      2 C          62.9524   89.3125   12.6863 C.ar    1  UNL1        0.0384
      3 C          63.9338   90.4449   12.7524 C.ar    1  UNL1        0.0207
      4 C          64.0869   91.3739   11.5847 C.ar    1  UNL1        0.0657
      5 C          63.2584   91.1705   10.3509 C.ar    1  UNL1        0.0207
      6 C          62.2769   90.0381   10.2847 C.ar    1  UNL1        0.0384
      7 N          65.0683   92.5063   11.6507 N.ar    1  UNL1       -0.2864
      8 C          65.4530   93.4071   10.5147 C.ar    1  UNL1        0.1022
      9 C          66.4599   94.3943   11.0263 C.ar    1  UNL1        0.1196
     10 N          66.6975   94.1036   12.4786 N.ar    1  UNL1       -0.2220
     11 C          65.8375   92.9368   12.8645 C.ar    1  UNL1        0.1828
     12 O          61.1424   87.9767   11.3864 O.3     1  UNL1       -0.4755
     13 C          60.6609   87.4783   10.0561 C.3     1  UNL1        0.2057
     14 C          61.0401   86.1046    9.5878 C.3     1  UNL1        0.0521
     15 C          62.4865   85.7298    9.4561 C.3     1  UNL1        0.0318
     16 C          63.3899   83.6468   12.7111 C.ar    1  UNL1        0.0204
     17 C          64.2413   82.5598   12.1248 C.ar    1  UNL1        0.0989
     18 N          64.5077   82.5295   10.6490 N.ar    1  UNL1       -0.2426
     19 C          63.9228   83.5862    9.7594 C.ar    1  UNL1        0.0946
     20 C          63.0715   84.6731   10.3457 C.ar    1  UNL1       -0.0029
     21 C          62.8050   84.7034   11.8215 C.ar    1  UNL1       -0.0011
@<TRIPOS>BOND
     1    16    17   ar
     2    17    18   ar
     3    18    19   ar
     4    19    20   ar
     5    20    15    1
     6    15    14    1
     7    14    13    1
     8    13    12    1
     9    12     1    1
    10     1     2   ar
    11     2     3   ar
    12     3     4   ar
    13     4     7    1
    14     7     8   ar
    15     8     9   ar
    16     9    10   ar
    17    10    11   ar
    18     4     5   ar
    19     5     6   ar
    20    20    21   ar
    21    21    16   ar
    22     6     1   ar
    23    11     7   ar
@<TRIPOS>MOLECULE
*****
 21 23 0 0 0
SMALL
GASTEIGER

@<TRIPOS>ATOM
      1 C          62.6713   90.2175   11.8845 C.ar    1  UNL1        0.1386
      2 C          63.6620   90.7148   12.8951 C.ar    1  UNL1        0.0384
      3 C          64.7208   91.6960   12.4875 C.ar    1  UNL1        0.0207
      4 C          64.7888   92.1801   11.0694 C.ar    1  UNL1        0.0657
      5 C          63.7981   91.6829   10.0589 C.ar    1  UNL1        0.0207
      6 C          62.7393   90.7016   10.4664 C.ar    1  UNL1        0.0384
      7 N          65.8475   93.1613   10.6619 N.ar    1  UNL1       -0.2864
      8 C          65.7603   94.6539   10.7837 C.ar    1  UNL1        0.1022
      9 C          67.0384   95.2374   10.2580 C.ar    1  UNL1        0.1196
     10 N          67.9154   94.1054    9.8113 N.ar    1  UNL1       -0.2220
     11 C          67.1795   92.8224   10.0609 C.ar    1  UNL1        0.1828
     12 O          61.6125   89.2363   12.2921 O.3     1  UNL1       -0.4755
     13 C          60.3405   89.1348   11.5037 C.3     1  UNL1        0.2057
     14 C          60.1067   87.9564   10.6055 C.3     1  UNL1        0.0521
     15 C          61.1804   87.5115    9.6572 C.3     1  UNL1        0.0318
     16 C          63.5093   84.3450    9.1104 C.ar    1  UNL1        0.0204
     17 C          63.4889   83.7379   10.4819 C.ar    1  UNL1        0.0989
     18 N          62.6989   84.3886   11.5784 N.ar    1  UNL1       -0.2426
     19 C          61.9294   85.6465   11.3036 C.ar    1  UNL1        0.0946
     20 C          61.9499   86.2536    9.9321 C.ar    1  UNL1       -0.0029
     21 C          62.7398   85.6028    8.8355 C.ar    1  UNL1       -0.0011
@<TRIPOS>BOND
     1    16    17   ar
     2    17    18   ar
     3    18    19   ar
     4    19    20   ar
     5    20    15    1
     6    15    14    1
     7    14    13    1
     8    13    12    1
     9    12     1    1
    10     1     2   ar
    11     2     3   ar
    12     3     4   ar
    13     4     7    1
    14     7     8   ar
    15     8     9   ar
    16     9    10   ar
    17    10    11   ar
    18     4     5   ar
    19     5     6   ar
    20    20    21   ar
    21    21    16   ar
    22     6     1   ar
    23    11     7   ar
@<TRIPOS>MOLECULE
*****
 21 23 0 0 0
SMALL
GASTEIGER

@<TRIPOS>ATOM
      1 C          62.3480   89.4424   10.9133 C.ar    1  UNL1        0.1386
      2 C          62.8163   90.6772   10.2019 C.ar    1  UNL1        0.0384
      3 C          63.7919   91.6019   10.8677 C.ar    1  UNL1        0.0207
      4 C          64.2992   91.2918   12.2448 C.ar    1  UNL1        0.0657
      5 C          63.8309   90.0571   12.9562 C.ar    1  UNL1        0.0207
      6 C          62.8554   89.1323   12.2905 C.ar    1  UNL1        0.0384
      7 N          65.2747   92.2165   12.9105 N.ar    1  UNL1       -0.2864
      8 C          65.7816   92.0991   14.3174 C.ar    1  UNL1        0.1022
      9 C          66.7349   93.2311   14.5627 C.ar    1  UNL1        0.1196
     10 N          66.8171   94.0481   13.3073 N.ar    1  UNL1       -0.2220
     11 C          65.9147   93.4211   12.2863 C.ar    1  UNL1        0.1828
     12 O          61.3725   88.5177   10.2476 O.3     1  UNL1       -0.4755
     13 C          61.8703   87.4091    9.3683 C.3     1  UNL1        0.2057
     14 C          61.7654   85.9844    9.8258 C.3     1  UNL1        0.0521
     15 C          61.8774   85.6549   11.2848 C.3     1  UNL1        0.0318
     16 C          64.2810   82.4995   11.1590 C.ar    1  UNL1        0.0204
     17 C          64.3739   82.1556   12.6161 C.ar    1  UNL1        0.0989
     18 N          63.6346   82.9782   13.6294 N.ar    1  UNL1       -0.2426
     19 C          62.8024   84.1446   13.1857 C.ar    1  UNL1        0.0946
     20 C          62.7096   84.4885   11.7286 C.ar    1  UNL1       -0.0029
     21 C          63.4489   83.6659   10.7153 C.ar    1  UNL1       -0.0011
@<TRIPOS>BOND
     1    16    17   ar
     2    17    18   ar
     3    18    19   ar
     4    19    20   ar
     5    20    15    1
     6    15    14    1
     7    14    13    1
     8    13    12    1
     9    12     1    1
    10     1     2   ar
    11     2     3   ar
    12     3     4   ar
    13     4     7    1
    14     7     8   ar
    15     8     9   ar
    16     9    10   ar
    17    10    11   ar
    18     4     5   ar
    19     5     6   ar
    20    20    21   ar
    21    21    16   ar
    22     6     1   ar
    23    11     7   ar
@<TRIPOS>MOLECULE
*****
 21 23 0 0 0
SMALL
GASTEIGER

@<TRIPOS>ATOM
      1 C          63.4347   84.0876   10.4930 C.ar    1  UNL1        0.1386
      2 C          63.4911   84.4056    9.0281 C.ar    1  UNL1        0.0384
      3 C          62.6130   85.4806    8.4596 C.ar    1  UNL1        0.0207
      4 C          61.6784   86.2377    9.3560 C.ar    1  UNL1        0.0657
      5 C          61.6220   85.9198   10.8207 C.ar    1  UNL1        0.0207
      6 C          62.5001   84.8447   11.3893 C.ar    1  UNL1        0.0384
      7 N          60.8003   87.3127    8.7875 N.ar    1  UNL1       -0.2864
      8 C          59.7719   87.1333    7.7104 C.ar    1  UNL1        0.1022
      9 C          59.1324   88.4657    7.4535 C.ar    1  UNL1        0.1196
     10 N          59.7657   89.4686    8.3718 N.ar    1  UNL1       -0.2220
     11 C          60.7965   88.7560    9.1962 C.ar    1  UNL1        0.1828
     12 O          64.3128   83.0126   11.0615 O.3     1  UNL1       -0.4755
     13 C          63.7152   81.7060   11.4925 C.3     1  UNL1        0.2057
     14 C          62.7624   81.6627   12.6503 C.3     1  UNL1        0.0521
     15 C          63.2728   81.8446   14.0489 C.3     1  UNL1        0.0318
     16 C          64.8595   85.3909   14.8590 C.ar    1  UNL1        0.0204
     17 C          63.7948   85.9849   15.7328 C.ar    1  UNL1        0.0989
     18 N          62.5561   85.1988   16.0453 N.ar    1  UNL1       -0.2426
     19 C          62.3821   83.8187   15.4841 C.ar    1  UNL1        0.0946
     20 C          63.4468   83.2248   14.6103 C.ar    1  UNL1       -0.0029
     21 C          64.6855   84.0109   14.2978 C.ar    1  UNL1       -0.0011
@<TRIPOS>BOND
     1    16    17   ar
     2    17    18   ar
     3    18    19   ar
     4    19    20   ar
     5    20    15    1
     6    15    14    1
     7    14    13    1
     8    13    12    1
     9    12     1    1
    10     1     2   ar
    11     2     3   ar
    12     3     4   ar
    13     4     7    1
    14     7     8   ar
    15     8     9   ar
    16     9    10   ar
    17    10    11   ar
    18     4     5   ar
    19     5     6   ar
    20    20    21   ar
    21    21    16   ar
    22     6     1   ar
    23    11     7   ar
@<TRIPOS>MOLECULE
*****
 21 23 0 0 0
SMALL
GASTEIGER

@<TRIPOS>ATOM
      1 C          62.9889   84.6792    9.9270 C.ar    1  UNL1        0.1386
      2 C          62.7007   85.6293    8.8025 C.ar    1  UNL1        0.0384
      3 C          61.9540   86.9026    9.0691 C.ar    1  UNL1        0.0207
      4 C          61.4955   87.2259   10.4602 C.ar    1  UNL1        0.0657
      5 C          61.7836   86.2759   11.5847 C.ar    1  UNL1        0.0207
      6 C          62.5303   85.0025   11.3181 C.ar    1  UNL1        0.0384
      7 N          60.7488   88.4992   10.7269 N.ar    1  UNL1       -0.2864
      8 C          59.7254   88.7125   11.8027 C.ar    1  UNL1        0.1022
      9 C          59.2385   90.1280   11.7053 C.ar    1  UNL1        0.1196
     10 N          59.9610   90.7895   10.5692 N.ar    1  UNL1       -0.2220
     11 C          60.8944   89.7829    9.9646 C.ar    1  UNL1        0.1828
     12 O          63.7355   83.4060    9.6603 O.3     1  UNL1       -0.4755
     13 C          64.3342   82.6350   10.7992 C.3     1  UNL1        0.2057
     14 C          63.4427   81.9359   11.7824 C.3     1  UNL1        0.0521
     15 C          63.8099   81.9033   13.2364 C.3     1  UNL1        0.0318
     16 C          64.7743   85.3884   14.8717 C.ar    1  UNL1        0.0204
     17 C          63.5567   85.6569   15.7056 C.ar    1  UNL1        0.0989
     18 N          62.4235   84.6741   15.7164 N.ar    1  UNL1       -0.2426
     19 C          62.5079   83.4230   14.8934 C.ar    1  UNL1        0.0946
     20 C          63.7254   83.1546   14.0595 C.ar    1  UNL1       -0.0029
     21 C          64.8587   84.1373   14.0487 C.ar    1  UNL1       -0.0011
@<TRIPOS>BOND
     1    16    17   ar
     2    17    18   ar
     3    18    19   ar
     4    19    20   ar
     5    20    15    1
     6    15    14    1
     7    14    13    1
     8    13    12    1
     9    12     1    1
    10     1     2   ar
    11     2     3   ar
    12     3     4   ar
    13     4     7    1
    14     7     8   ar
    15     8     9   ar
    16     9    10   ar
    17    10    11   ar
    18     4     5   ar
    19     5     6   ar
    20    20    21   ar
    21    21    16   ar
    22     6     1   ar
    23    11     7   ar
@<TRIPOS>MOLECULE
*****
 21 23 0 0 0
SMALL
GASTEIGER

@<TRIPOS>ATOM
      1 C          63.4050   83.9667   10.9448 C.ar    1  UNL1        0.1386
      2 C          63.5883   84.2457    9.4824 C.ar    1  UNL1        0.0384
      3 C          62.7482   85.2887    8.8067 C.ar    1  UNL1        0.0207
      4 C          61.7248   86.0526    9.5934 C.ar    1  UNL1        0.0657
      5 C          61.5414   85.7737   11.0558 C.ar    1  UNL1        0.0207
      6 C          62.3815   84.7307   11.7315 C.ar    1  UNL1        0.0384
      7 N          60.8847   87.0955    8.9178 N.ar    1  UNL1       -0.2864
      8 C          60.8540   88.5570    9.2544 C.ar    1  UNL1        0.1022
      9 C          59.8781   89.2248    8.3315 C.ar    1  UNL1        0.1196
     10 N          59.3056   88.1761    7.4245 N.ar    1  UNL1       -0.2220
     11 C          59.9277   86.8601    7.7869 C.ar    1  UNL1        0.1828
     12 O          64.2451   82.9238   11.6204 O.3     1  UNL1       -0.4755
     13 C          64.4745   82.9894   13.1013 C.3     1  UNL1        0.2057
     14 C          64.6838   84.3159   13.7698 C.3     1  UNL1        0.0521
     15 C          64.1864   84.5382   15.1673 C.3     1  UNL1        0.0318
     16 C          62.8610   87.5203   17.4258 C.ar    1  UNL1        0.0204
     17 C          63.2307   88.7025   16.5798 C.ar    1  UNL1        0.0989
     18 N          63.9190   88.4966   15.2630 N.ar    1  UNL1       -0.2426
     19 C          64.2375   87.1085   14.7922 C.ar    1  UNL1        0.0946
     20 C          63.8678   85.9263   15.6382 C.ar    1  UNL1       -0.0029
     21 C          63.1796   86.1322   16.9549 C.ar    1  UNL1       -0.0011
@<TRIPOS>BOND
     1    16    17   ar
     2    17    18   ar
     3    18    19   ar
     4    19    20   ar
     5    20    15    1
     6    15    14    1
     7    14    13    1
     8    13    12    1
     9    12     1    1
    10     1     2   ar
    11     2     3   ar
    12     3     4   ar
    13     4     7    1
    14     7     8   ar
    15     8     9   ar
    16     9    10   ar
    17    10    11   ar
    18     4     5   ar
    19     5     6   ar
    20    20    21   ar
    21    21    16   ar
    22     6     1   ar
    23    11     7   ar
