@<TRIPOS>MOLECULE
*****
 26 28 0 0 0
SMALL
GASTEIGER

@<TRIPOS>ATOM
      1 C          63.8883   89.6630   13.2242 C.ar    1  UNL1        0.0456
      2 C          63.4734   90.8074   12.3478 C.ar    1  UNL1        0.1325
      3 O          63.8396   92.2123   12.7252 O.3     1  UNL1       -0.5057
      4 C          62.6923   90.5471   11.0940 C.ar    1  UNL1        0.0366
      5 C          62.3260   89.1423   10.7165 C.ar    1  UNL1        0.0092
      6 C          62.7409   87.9979   11.5929 C.ar    1  UNL1        0.0742
      7 C          63.5221   88.2582   12.8467 C.ar    1  UNL1        0.1429
      8 O          63.7902   86.9389   13.5082 O.3     1  UNL1       -0.4544
      9 C          63.1747   85.8632   12.6631 C.3     1  UNL1        0.2829
     10 C          62.5263   86.5177   11.4795 C.2     1  UNL1        0.2352
     11 O          61.7648   85.9813   10.3036 O.2     1  UNL1       -0.2853
     12 C          62.5593   84.7874   11.8181 C.2     1  UNL1        0.1119
     13 CL         61.7872   84.8127   10.5323 Cl      1  UNL1       -0.0801
     14 C          62.8274   83.4681   12.4795 C.2     1  UNL1        0.1231
     15 CL         62.3910   82.1244   11.9756 Cl      1  UNL1       -0.0768
     16 C          63.6086   83.7284   13.7334 C.2     1  UNL1        0.2633
     17 O          64.0904   82.6907   14.7034 O.2     1  UNL1       -0.2689
     18 N          63.8232   85.2086   13.8468 N.am    1  UNL1       -0.2353
     19 C          64.5574   85.9110   14.9503 C.3     1  UNL1        0.1192
     20 H          64.3276   92.3749   13.5084 H       1  UNL1        0.2922
     21 C          64.6694   89.9233   14.4780 C.3     1  UNL1        0.0325
     22 C          64.0492   90.7019   15.6000 C.3     1  UNL1        0.0049
     23 C          63.2425   89.9940   16.6480 C.3     1  UNL1        0.0003
     24 C          63.1049   88.5009   16.6069 C.3     1  UNL1        0.0000
     25 C          62.5250   86.2732   17.8116 C.3     1  UNL1        0.0000
     26 C          62.8511   87.7360   17.8721 C.3     1  UNL1        0.0000
@<TRIPOS>BOND
     1    25    26    1
     2    26    24    1
     3    24    23    1
     4    23    22    1
     5    22    21    1
     6    21     1    1
     7     1     2   ar
     8     2     3    1
     9     2     4   ar
    10     4     5   ar
    11     5     6   ar
    12     6     7   ar
    13     7     8    1
    14     9     8    1
    15     9    10    1
    16    10    11    2
    17     9    12    1
    18    12    13    1
    19    12    14    2
    20    14    15    1
    21    14    16    1
    22    16    17    2
    23    16    18   am
    24    18    19    1
    25     7     1   ar
    26    18     9    1
    27    10     6    1
    28     3    20    1
@<TRIPOS>MOLECULE
*****
 26 28 0 0 0
SMALL
GASTEIGER

@<TRIPOS>ATOM
      1 C          63.7069   89.6392   13.1886 C.ar    1  UNL1        0.0456
      2 C          63.3365   90.7403   12.2397 C.ar    1  UNL1        0.1325
      3 O          63.6388   92.1669   12.5915 O.3     1  UNL1       -0.5057
      4 C          62.6639   90.4149   10.9391 C.ar    1  UNL1        0.0366
      5 C          62.3616   88.9885   10.5873 C.ar    1  UNL1        0.0092
      6 C          62.7320   87.8874   11.5362 C.ar    1  UNL1        0.0742
      7 C          63.4046   88.2128   12.8368 C.ar    1  UNL1        0.1429
      8 O          63.6498   86.9254   13.5666 O.3     1  UNL1       -0.4544
      9 C          63.1287   85.8044   12.7170 C.3     1  UNL1        0.2829
     10 C          62.5615   86.3990   11.4622 C.2     1  UNL1        0.2352
     11 O          61.9087   85.8011   10.2511 O.2     1  UNL1       -0.2853
     12 C          62.6077   84.6834   11.8674 C.2     1  UNL1        0.1119
     13 CL         61.9399   84.6424   10.5248 Cl      1  UNL1       -0.0801
     14 C          62.8529   83.3960   12.5972 C.2     1  UNL1        0.1231
     15 CL         62.4893   82.0242   12.1116 Cl      1  UNL1       -0.0768
     16 C          63.5255   83.7214   13.8979 C.2     1  UNL1        0.2633
     17 O          63.9527   82.7321   14.9413 O.2     1  UNL1       -0.2689
     18 N          63.6960   85.2098   13.9719 N.am    1  UNL1       -0.2353
     19 C          64.3236   85.9702   15.1024 C.3     1  UNL1        0.1192
     20 H          64.0590   92.3701   13.4040 H       1  UNL1        0.2922
     21 C          64.3795   89.9646   14.4893 C.3     1  UNL1        0.0325
     22 C          65.6509   90.7604   14.4976 C.3     1  UNL1        0.0049
     23 C          65.7521   92.0037   15.3307 C.3     1  UNL1        0.0003
     24 C          66.6060   93.1477   14.8701 C.3     1  UNL1        0.0000
     25 C          68.8273   92.4413   16.0174 C.3     1  UNL1        0.0000
     26 C          67.8484   93.5093   15.6287 C.3     1  UNL1        0.0000
@<TRIPOS>BOND
     1    25    26    1
     2    26    24    1
     3    24    23    1
     4    23    22    1
     5    22    21    1
     6    21     1    1
     7     1     2   ar
     8     2     3    1
     9     2     4   ar
    10     4     5   ar
    11     5     6   ar
    12     6     7   ar
    13     7     8    1
    14     9     8    1
    15     9    10    1
    16    10    11    2
    17     9    12    1
    18    12    13    1
    19    12    14    2
    20    14    15    1
    21    14    16    1
    22    16    17    2
    23    16    18   am
    24    18    19    1
    25     7     1   ar
    26    18     9    1
    27    10     6    1
    28     3    20    1
@<TRIPOS>MOLECULE
*****
 26 28 0 0 0
SMALL
GASTEIGER

@<TRIPOS>ATOM
      1 C          63.1254   89.0857   12.2376 C.ar    1  UNL1        0.0456
      2 C          63.5436   90.2471   13.0898 C.ar    1  UNL1        0.1325
      3 O          63.3396   91.6497   12.5985 O.3     1  UNL1       -0.5057
      4 C          64.1657   90.0060   14.4332 C.ar    1  UNL1        0.0366
      5 C          64.3697   88.6035   14.9245 C.ar    1  UNL1        0.0092
      6 C          63.9515   87.4421   14.0723 C.ar    1  UNL1        0.0742
      7 C          63.3294   87.6832   12.7289 C.ar    1  UNL1        0.1429
      8 O          63.0195   86.3498   12.1156 O.3     1  UNL1       -0.4544
      9 C          63.4501   85.2847   13.0799 C.3     1  UNL1        0.2829
     10 C          64.0261   85.9598   14.2892 C.2     1  UNL1        0.2352
     11 O          64.6133   85.4407   15.5683 O.2     1  UNL1       -0.2853
     12 C          63.8808   84.2195   14.0443 C.2     1  UNL1        0.1119
     13 CL         64.5151   84.2653   15.4028 Cl      1  UNL1       -0.0801
     14 C          63.5709   82.8862   13.4310 C.2     1  UNL1        0.1231
     15 CL         63.8365   81.5469   14.0521 Cl      1  UNL1       -0.0768
     16 C          62.9487   83.1272   12.0876 C.2     1  UNL1        0.2633
     17 O          62.4830   82.0714   11.1293 O.2     1  UNL1       -0.2689
     18 N          62.8741   84.6096   11.8706 N.am    1  UNL1       -0.2353
     19 C          62.3206   85.2963   10.6573 C.3     1  UNL1        0.1192
     20 H          62.9509   91.8003   11.7593 H       1  UNL1        0.2922
     21 C          62.5032   89.3268   10.8942 C.3     1  UNL1        0.0325
     22 C          61.1248   88.8119   10.6027 C.3     1  UNL1        0.0049
     23 C          60.2880   89.4666    9.5440 C.3     1  UNL1        0.0003
     24 C          59.9096   88.7040    8.3089 C.3     1  UNL1        0.0000
     25 C          60.1775   86.1661    7.8220 C.3     1  UNL1        0.0000
     26 C          59.3983   87.2984    8.4226 C.3     1  UNL1        0.0000
@<TRIPOS>BOND
     1    25    26    1
     2    26    24    1
     3    24    23    1
     4    23    22    1
     5    22    21    1
     6    21     1    1
     7     1     2   ar
     8     2     3    1
     9     2     4   ar
    10     4     5   ar
    11     5     6   ar
    12     6     7   ar
    13     7     8    1
    14     9     8    1
    15     9    10    1
    16    10    11    2
    17     9    12    1
    18    12    13    1
    19    12    14    2
    20    14    15    1
    21    14    16    1
    22    16    17    2
    23    16    18   am
    24    18    19    1
    25     7     1   ar
    26    18     9    1
    27    10     6    1
    28     3    20    1
@<TRIPOS>MOLECULE
*****
 26 28 0 0 0
SMALL
GASTEIGER

@<TRIPOS>ATOM
      1 C          63.7888   85.8007   13.4621 C.ar    1  UNL1        0.0456
      2 C          64.5137   86.4664   14.5940 C.ar    1  UNL1        0.1325
      3 O          65.2225   85.6357   15.6224 O.3     1  UNL1       -0.5057
      4 C          64.5297   87.9627   14.6977 C.ar    1  UNL1        0.0366
      5 C          63.8209   88.7934   13.6693 C.ar    1  UNL1        0.0092
      6 C          63.0960   88.1277   12.5374 C.ar    1  UNL1        0.0742
      7 C          63.0800   86.6314   12.4337 C.ar    1  UNL1        0.1429
      8 O          62.2877   86.2596   11.2155 O.3     1  UNL1       -0.4544
      9 C          61.8142   87.5262   10.5661 C.3     1  UNL1        0.2829
     10 C          62.3137   88.6807   11.3831 C.2     1  UNL1        0.2352
     11 O          62.1716   90.1678   11.2469 O.2     1  UNL1       -0.2853
     12 C          61.3406   88.7927    9.9168 C.2     1  UNL1        0.1119
     13 CL         61.5143   90.2434   10.2566 Cl      1  UNL1       -0.0801
     14 C          60.5484   88.4210    8.6986 C.2     1  UNL1        0.1231
     15 CL         59.8882   89.3776    7.7504 Cl      1  UNL1       -0.0768
     16 C          60.5323   86.9246    8.5949 C.2     1  UNL1        0.2633
     17 O          59.8532   86.1222    7.5250 O.2     1  UNL1       -0.2689
     18 N          61.3146   86.3716    9.7492 N.am    1  UNL1       -0.2353
     19 C          61.5551   84.9191   10.0360 C.3     1  UNL1        0.1192
     20 H          65.2125   84.7010   15.5577 H       1  UNL1        0.2922
     21 C          63.7727   84.3044   13.3584 C.3     1  UNL1        0.0325
     22 C          64.4656   83.6243   12.2151 C.3     1  UNL1        0.0049
     23 C          63.9257   82.3350   11.6708 C.3     1  UNL1        0.0003
     24 C          62.5419   81.8870   12.0378 C.3     1  UNL1        0.0000
     25 C          61.2531   81.0352   14.1267 C.3     1  UNL1        0.0000
     26 C          62.3466   80.8613   13.1148 C.3     1  UNL1        0.0000
@<TRIPOS>BOND
     1    25    26    1
     2    26    24    1
     3    24    23    1
     4    23    22    1
     5    22    21    1
     6    21     1    1
     7     1     2   ar
     8     2     3    1
     9     2     4   ar
    10     4     5   ar
    11     5     6   ar
    12     6     7   ar
    13     7     8    1
    14     9     8    1
    15     9    10    1
    16    10    11    2
    17     9    12    1
    18    12    13    1
    19    12    14    2
    20    14    15    1
    21    14    16    1
    22    16    17    2
    23    16    18   am
    24    18    19    1
    25     7     1   ar
    26    18     9    1
    27    10     6    1
    28     3    20    1
@<TRIPOS>MOLECULE
*****
 26 28 0 0 0
SMALL
GASTEIGER

@<TRIPOS>ATOM
      1 C          63.7507   85.8085   13.5318 C.ar    1  UNL1        0.0456
      2 C          64.3557   84.4366   13.5755 C.ar    1  UNL1        0.1325
      3 O          65.1495   84.0048   14.7728 O.3     1  UNL1       -0.5057
      4 C          64.1668   83.4965   12.4220 C.ar    1  UNL1        0.0366
      5 C          63.3731   83.9283   11.2248 C.ar    1  UNL1        0.0092
      6 C          62.7681   85.3001   11.1810 C.ar    1  UNL1        0.0742
      7 C          62.9569   86.2403   12.3345 C.ar    1  UNL1        0.1429
      8 O          62.2472   87.5211   12.0095 O.3     1  UNL1       -0.4544
      9 C          61.6198   87.3727   10.6551 C.3     1  UNL1        0.2829
     10 C          61.9417   86.0000   10.1431 C.2     1  UNL1        0.2352
     11 O          61.6022   85.2758    8.8741 O.2     1  UNL1       -0.2853
     12 C          60.9923   87.2242    9.3008 C.2     1  UNL1        0.1119
     13 CL         60.9610   86.1027    8.3052 Cl      1  UNL1       -0.0801
     14 C          60.2826   88.5051    8.9758 C.2     1  UNL1        0.1231
     15 CL         59.5183   88.7950    7.7181 Cl      1  UNL1       -0.0768
     16 C          60.4714   89.4453   10.1292 C.2     1  UNL1        0.2633
     17 O          59.9291   90.8403   10.2276 O.2     1  UNL1       -0.2689
     18 N          61.2978   88.7454   11.1671 N.am    1  UNL1       -0.2353
     19 C          61.7270   89.3177   12.4856 C.3     1  UNL1        0.1192
     20 H          65.2675   84.5921   15.4934 H       1  UNL1        0.2922
     21 C          63.9396   86.7486   14.6852 C.3     1  UNL1        0.0325
     22 C          64.3879   88.1585   14.4380 C.3     1  UNL1        0.0049
     23 C          63.8691   89.2723   15.2984 C.3     1  UNL1        0.0003
     24 C          64.2980   90.6854   15.0353 C.3     1  UNL1        0.0000
     25 C          66.7141   91.5935   14.7391 C.3     1  UNL1        0.0000
     26 C          65.4850   90.9582   14.1597 C.3     1  UNL1        0.0000
@<TRIPOS>BOND
     1    25    26    1
     2    26    24    1
     3    24    23    1
     4    23    22    1
     5    22    21    1
     6    21     1    1
     7     1     2   ar
     8     2     3    1
     9     2     4   ar
    10     4     5   ar
    11     5     6   ar
    12     6     7   ar
    13     7     8    1
    14     9     8    1
    15     9    10    1
    16    10    11    2
    17     9    12    1
    18    12    13    1
    19    12    14    2
    20    14    15    1
    21    14    16    1
    22    16    17    2
    23    16    18   am
    24    18    19    1
    25     7     1   ar
    26    18     9    1
    27    10     6    1
    28     3    20    1
@<TRIPOS>MOLECULE
*****
 26 28 0 0 0
SMALL
GASTEIGER

@<TRIPOS>ATOM
      1 C          63.9836   84.4398   13.5954 C.ar    1  UNL1        0.0456
      2 C          63.8198   82.9551   13.4579 C.ar    1  UNL1        0.1325
      3 O          64.5256   82.0316   14.4061 O.3     1  UNL1       -0.5057
      4 C          62.9501   82.3939   12.3722 C.ar    1  UNL1        0.0366
      5 C          62.2443   83.3173   11.4241 C.ar    1  UNL1        0.0092
      6 C          62.4082   84.8020   11.5616 C.ar    1  UNL1        0.0742
      7 C          63.2778   85.3632   12.6472 C.ar    1  UNL1        0.1429
      8 O          63.2490   86.8589   12.5375 O.3     1  UNL1       -0.4544
      9 C          62.3615   87.2221   11.3841 C.3     1  UNL1        0.2829
     10 C          61.8418   85.9508   10.7809 C.2     1  UNL1        0.2352
     11 O          60.9284   85.6652    9.6258 O.2     1  UNL1       -0.2853
     12 C          61.4740   87.5853   10.2307 C.2     1  UNL1        0.1119
     13 CL         60.6800   86.7691    9.2542 Cl      1  UNL1       -0.0801
     14 C          61.4452   89.0810   10.1210 C.2     1  UNL1        0.1231
     15 CL         60.6808   89.8759    9.1042 Cl      1  UNL1       -0.0768
     16 C          62.3148   89.6423   11.2067 C.2     1  UNL1        0.2633
     17 O          62.5729   91.0969   11.4662 O.2     1  UNL1       -0.2689
     18 N          62.8811   88.4934   11.9873 N.am    1  UNL1       -0.2353
     19 C          63.8049   88.5975   13.1645 C.3     1  UNL1        0.1192
     20 H          65.0688   82.3822   15.0843 H       1  UNL1        0.2922
     21 C          64.8533   85.0010   14.6811 C.3     1  UNL1        0.0325
     22 C          64.2439   85.4350   15.9812 C.3     1  UNL1        0.0049
     23 C          62.7830   85.2101   16.2367 C.3     1  UNL1        0.0003
     24 C          62.0230   86.1521   17.1228 C.3     1  UNL1        0.0000
     25 C          63.0408   88.5398   17.0095 C.3     1  UNL1        0.0000
     26 C          62.7329   87.2945   17.7869 C.3     1  UNL1        0.0000
@<TRIPOS>BOND
     1    25    26    1
     2    26    24    1
     3    24    23    1
     4    23    22    1
     5    22    21    1
     6    21     1    1
     7     1     2   ar
     8     2     3    1
     9     2     4   ar
    10     4     5   ar
    11     5     6   ar
    12     6     7   ar
    13     7     8    1
    14     9     8    1
    15     9    10    1
    16    10    11    2
    17     9    12    1
    18    12    13    1
    19    12    14    2
    20    14    15    1
    21    14    16    1
    22    16    17    2
    23    16    18   am
    24    18    19    1
    25     7     1   ar
    26    18     9    1
    27    10     6    1
    28     3    20    1
@<TRIPOS>MOLECULE
*****
 26 28 0 0 0
SMALL
GASTEIGER

@<TRIPOS>ATOM
      1 C          63.1549   88.6452   12.1131 C.ar    1  UNL1        0.0456
      2 C          63.4356   89.7897   13.0412 C.ar    1  UNL1        0.1325
      3 O          63.2414   91.2011   12.5718 O.3     1  UNL1       -0.5057
      4 C          63.9104   89.5227   14.4388 C.ar    1  UNL1        0.0366
      5 C          64.1046   88.1114   14.9083 C.ar    1  UNL1        0.0092
      6 C          63.8239   86.9670   13.9801 C.ar    1  UNL1        0.0742
      7 C          63.3491   87.2339   12.5825 C.ar    1  UNL1        0.1429
      8 O          63.1549   85.9130   11.8988 O.3     1  UNL1       -0.4544
      9 C          63.5097   84.8297   12.8738 C.3     1  UNL1        0.2829
     10 C          63.9232   85.4812   14.1601 C.2     1  UNL1        0.2352
     11 O          64.3798   84.9376   15.4816 O.2     1  UNL1       -0.2853
     12 C          63.8645   83.7465   13.8488 C.2     1  UNL1        0.1119
     13 CL         64.3401   83.7660   15.2713 Cl      1  UNL1       -0.0801
     14 C          63.6703   82.4255   13.1650 C.2     1  UNL1        0.1231
     15 CL         63.9090   81.0749   13.7723 Cl      1  UNL1       -0.0768
     16 C          63.1954   82.6925   11.7674 C.2     1  UNL1        0.2633
     17 O          62.8759   81.6556   10.7316 O.2     1  UNL1       -0.2689
     18 N          63.0962   84.1783   11.5874 N.am    1  UNL1       -0.2353
     19 C          62.6600   84.8881   10.3401 C.3     1  UNL1        0.1192
     20 H          62.9448   91.3678   11.6988 H       1  UNL1        0.2922
     21 C          62.6801   88.9122   10.7155 C.3     1  UNL1        0.0325
     22 C          61.3735   88.3445   10.2461 C.3     1  UNL1        0.0049
     23 C          60.2671   89.2629    9.8187 C.3     1  UNL1        0.0003
     24 C          59.7856   90.3393   10.7458 C.3     1  UNL1        0.0000
     25 C          58.5735   89.0186   12.6263 C.3     1  UNL1        0.0000
     26 C          59.5860   90.0408   12.2022 C.3     1  UNL1        0.0000
@<TRIPOS>BOND
     1    25    26    1
     2    26    24    1
     3    24    23    1
     4    23    22    1
     5    22    21    1
     6    21     1    1
     7     1     2   ar
     8     2     3    1
     9     2     4   ar
    10     4     5   ar
    11     5     6   ar
    12     6     7   ar
    13     7     8    1
    14     9     8    1
    15     9    10    1
    16    10    11    2
    17     9    12    1
    18    12    13    1
    19    12    14    2
    20    14    15    1
    21    14    16    1
    22    16    17    2
    23    16    18   am
    24    18    19    1
    25     7     1   ar
    26    18     9    1
    27    10     6    1
    28     3    20    1
@<TRIPOS>MOLECULE
*****
 26 28 0 0 0
SMALL
GASTEIGER

@<TRIPOS>ATOM
      1 C          63.8599   90.0812   13.1362 C.ar    1  UNL1        0.0456
      2 C          64.5955   89.5311   14.3220 C.ar    1  UNL1        0.1325
      3 O          65.3448   90.4559   15.2350 O.3     1  UNL1       -0.5057
      4 C          64.5819   88.0562   14.5949 C.ar    1  UNL1        0.0366
      5 C          63.8327   87.1315   13.6821 C.ar    1  UNL1        0.0092
      6 C          63.0971   87.6816   12.4962 C.ar    1  UNL1        0.0742
      7 C          63.1107   89.1565   12.2233 C.ar    1  UNL1        0.1429
      8 O          62.2996   89.4065   10.9865 O.3     1  UNL1       -0.4544
      9 C          61.7847   88.0861   10.4951 C.3     1  UNL1        0.2829
     10 C          62.2776   87.0201   11.4281 C.2     1  UNL1        0.2352
     11 O          62.1006   85.5310   11.4649 O.2     1  UNL1       -0.2853
     12 C          61.2697   86.7658   10.0036 C.2     1  UNL1        0.1119
     13 CL         61.4199   85.3592   10.5028 Cl      1  UNL1       -0.0801
     14 C          60.4586   87.0158    8.7669 C.2     1  UNL1        0.1231
     15 CL         59.7571   85.9738    7.9470 Cl      1  UNL1       -0.0768
     16 C          60.4722   88.4907    8.4939 C.2     1  UNL1        0.2633
     17 O          59.7867   89.1826    7.3532 O.2     1  UNL1       -0.2689
     18 N          61.2918   89.1522    9.5620 N.am    1  UNL1       -0.2353
     19 C          61.5696   90.6217    9.6768 C.3     1  UNL1        0.1192
     20 H          65.3533   91.3772   15.0645 H       1  UNL1        0.2922
     21 C          63.8736   91.5561   12.8632 C.3     1  UNL1        0.0325
     22 C          65.0923   92.1977   12.2690 C.3     1  UNL1        0.0049
     23 C          65.0739   92.6664   10.8442 C.3     1  UNL1        0.0003
     24 C          66.3362   93.1587   10.2003 C.3     1  UNL1        0.0000
     25 C          68.5891   92.3731    9.1723 C.3     1  UNL1        0.0000
     26 C          67.5923   92.3440   10.2927 C.3     1  UNL1        0.0000
@<TRIPOS>BOND
     1    25    26    1
     2    26    24    1
     3    24    23    1
     4    23    22    1
     5    22    21    1
     6    21     1    1
     7     1     2   ar
     8     2     3    1
     9     2     4   ar
    10     4     5   ar
    11     5     6   ar
    12     6     7   ar
    13     7     8    1
    14     9     8    1
    15     9    10    1
    16    10    11    2
    17     9    12    1
    18    12    13    1
    19    12    14    2
    20    14    15    1
    21    14    16    1
    22    16    17    2
    23    16    18   am
    24    18    19    1
    25     7     1   ar
    26    18     9    1
    27    10     6    1
    28     3    20    1
@<TRIPOS>MOLECULE
*****
 26 28 0 0 0
SMALL
GASTEIGER

@<TRIPOS>ATOM
      1 C          63.0763   89.1363   12.6630 C.ar    1  UNL1        0.0456
      2 C          63.4792   90.1685   13.6739 C.ar    1  UNL1        0.1325
      3 O          63.2368   91.6230   13.3983 O.3     1  UNL1       -0.5057
      4 C          64.1246   89.7464   14.9605 C.ar    1  UNL1        0.0366
      5 C          64.3671   88.2921   15.2361 C.ar    1  UNL1        0.0092
      6 C          63.9641   87.2598   14.2252 C.ar    1  UNL1        0.0742
      7 C          63.3187   87.6819   12.9386 C.ar    1  UNL1        0.1429
      8 O          63.0312   86.4469   12.1373 O.3     1  UNL1       -0.4544
      9 C          63.4989   85.2616   12.9286 C.3     1  UNL1        0.2829
     10 C          64.0754   85.7640   14.2190 C.2     1  UNL1        0.2352
     11 O          64.6913   85.0757   15.4010 O.2     1  UNL1       -0.2853
     12 C          63.9665   84.0762   13.7199 C.2     1  UNL1        0.1119
     13 CL         64.6178   83.9358   15.0639 Cl      1  UNL1       -0.0801
     14 C          63.6790   82.8412   12.9186 C.2     1  UNL1        0.1231
     15 CL         63.9834   81.4316   13.3314 Cl      1  UNL1       -0.0768
     16 C          63.0336   83.2633   11.6320 C.2     1  UNL1        0.2633
     17 O          62.5793   82.3499   10.5323 O.2     1  UNL1       -0.2689
     18 N          62.9223   84.7591   11.6382 N.am    1  UNL1       -0.2353
     19 C          62.3371   85.6042   10.5458 C.3     1  UNL1        0.1192
     20 H          62.8336   91.8867   12.5946 H       1  UNL1        0.2922
     21 C          62.4309   89.5584   11.3764 C.3     1  UNL1        0.0325
     22 C          63.2605   90.1695   10.2863 C.3     1  UNL1        0.0049
     23 C          63.6192   91.6249   10.3433 C.3     1  UNL1        0.0003
     24 C          65.0097   92.0403   10.7231 C.3     1  UNL1        0.0000
     25 C          66.1195   94.0957   11.8604 C.3     1  UNL1        0.0000
     26 C          65.3929   93.4903   10.6962 C.3     1  UNL1        0.0000
@<TRIPOS>BOND
     1    25    26    1
     2    26    24    1
     3    24    23    1
     4    23    22    1
     5    22    21    1
     6    21     1    1
     7     1     2   ar
     8     2     3    1
     9     2     4   ar
    10     4     5   ar
    11     5     6   ar
    12     6     7   ar
    13     7     8    1
    14     9     8    1
    15     9    10    1
    16    10    11    2
    17     9    12    1
    18    12    13    1
    19    12    14    2
    20    14    15    1
    21    14    16    1
    22    16    17    2
    23    16    18   am
    24    18    19    1
    25     7     1   ar
    26    18     9    1
    27    10     6    1
    28     3    20    1
