@<TRIPOS>MOLECULE
*****
 32 34 0 0 0
SMALL
GASTEIGER

@<TRIPOS>ATOM
      1 C          64.5813   90.9080   14.9328 C.3     1  UNL1        0.0732
      2 C          64.2323   91.6142   16.2093 C.3     1  UNL1        0.0960
      3 N          63.3858   90.6902   17.0338 N.am    1  UNL1       -0.3026
      4 C          63.2117   89.4129   16.2669 C.2     1  UNL1        0.2408
      5 O          62.4351   88.2119   16.7190 O.2     1  UNL1       -0.2733
      6 C          63.9505   89.5475   14.9684 C.3     1  UNL1        0.1555
      7 H          63.0105   90.8875   17.9223 H       1  UNL1        0.1495
      8 C          67.0816   92.5776   11.5845 C.ar    1  UNL1        0.1432
      9 C          67.7314   92.1646   12.8718 C.ar    1  UNL1        0.0663
     10 C          66.8980   91.6080   13.9879 C.ar    1  UNL1        0.1414
     11 F          67.5479   91.1950   15.2752 F       1  UNL1       -0.2043
     12 C          65.4147   91.4645   13.8167 C.ar    1  UNL1        0.0363
     13 C          64.7649   91.8775   12.5294 C.ar    1  UNL1        0.1414
     14 F          63.2816   91.7340   12.3582 F       1  UNL1       -0.2043
     15 C          65.5984   92.4341   11.4133 C.ar    1  UNL1        0.0663
     16 C          68.4278   92.2258    9.3904 C.3     1  UNL1        0.2525
     17 O          67.9150   93.1341   10.4684 O.3     1  UNL1       -0.4713
     18 N          64.0425   88.5047   13.8941 N.am    1  UNL1       -0.2821
     19 C          63.0161   88.4612   12.8013 C.2     1  UNL1        0.3048
     20 O          61.8976   89.4606   12.7825 O.2     1  UNL1       -0.2525
     21 N          63.1080   87.4184   11.7270 N.am    1  UNL1       -0.2682
     22 H          64.7765   87.8488   13.9064 H       1  UNL1        0.1514
     23 H          63.8420   86.7624   11.7392 H       1  UNL1        0.1564
     24 C          62.0815   87.3749   10.6341 C.ar    1  UNL1        0.0546
     25 C          61.5685   86.0552   10.1390 C.ar    1  UNL1        0.0146
     26 C          60.5420   86.0118    9.0461 C.ar    1  UNL1        0.0000
     27 C          60.0285   87.2880    8.4483 C.ar    1  UNL1        0.0119
     28 C          59.0020   87.2445    7.3554 C.3     1  UNL1        0.0342
     29 C          60.5415   88.6077    8.9434 C.ar    1  UNL1        0.1309
     30 O          60.0279   89.8841    8.3456 O.3     1  UNL1       -0.5058
     31 C          61.5679   88.6512   10.0363 C.ar    1  UNL1        0.0510
     32 H          59.3867   89.8570    7.6629 H       1  UNL1        0.2922
@<TRIPOS>BOND
     1    16    17    1
     2    17     8    1
     3     8     9   ar
     4     9    10   ar
     5    10    11    1
     6    10    12   ar
     7     1    12    1
     8     1     2    1
     9     2     3    1
    10     3     4   am
    11     4     5    2
    12     4     6    1
    13     6    18    1
    14    18    19   am
    15    19    20    2
    16    19    21   am
    17    21    24    1
    18    24    25   ar
    19    25    26   ar
    20    26    27   ar
    21    27    28    1
    22    27    29   ar
    23    29    30    1
    24    29    31   ar
    25    12    13   ar
    26    13    14    1
    27    13    15   ar
    28    15     8   ar
    29     6     1    1
    30    31    24   ar
    31     3     7    1
    32    18    22    1
    33    21    23    1
    34    30    32    1
@<TRIPOS>MOLECULE
*****
 32 34 0 0 0
SMALL
GASTEIGER

@<TRIPOS>ATOM
      1 C          64.5739   90.9049   14.9392 C.3     1  UNL1        0.0732
      2 C          64.2275   91.6046   16.2199 C.3     1  UNL1        0.0960
      3 N          63.3920   90.6723   17.0463 N.am    1  UNL1       -0.3026
      4 C          63.2220   89.3964   16.2762 C.2     1  UNL1        0.2408
      5 O          62.4561   88.1887   16.7288 O.2     1  UNL1       -0.2733
      6 C          63.9525   89.5401   14.9740 C.3     1  UNL1        0.1555
      7 H          63.0204   90.8642   17.9375 H       1  UNL1        0.1495
      8 C          67.0436   92.6020   11.5821 C.ar    1  UNL1        0.1432
      9 C          65.5596   92.4551   11.4213 C.ar    1  UNL1        0.0663
     10 C          64.7363   91.8894   12.5404 C.ar    1  UNL1        0.1414
     11 F          63.2521   91.7425   12.3796 F       1  UNL1       -0.2043
     12 C          65.3971   91.4706   13.8201 C.ar    1  UNL1        0.0363
     13 C          66.8812   91.6174   13.9809 C.ar    1  UNL1        0.1414
     14 F          67.5421   91.1986   15.2607 F       1  UNL1       -0.2043
     15 C          67.7045   92.1831   12.8618 C.ar    1  UNL1        0.0663
     16 C          68.4802   92.2516    9.4459 C.3     1  UNL1        0.2525
     17 O          67.8669   93.1676   10.4630 O.3     1  UNL1       -0.4713
     18 N          64.0452   88.5014   13.8958 N.am    1  UNL1       -0.2821
     19 C          63.0136   88.4553   12.8080 C.2     1  UNL1        0.3048
     20 O          61.8890   89.4480   12.7982 O.2     1  UNL1       -0.2525
     21 N          63.1063   87.4165   11.7298 N.am    1  UNL1       -0.2682
     22 H          64.7833   87.8498   13.9022 H       1  UNL1        0.1514
     23 H          63.8443   86.7650   11.7362 H       1  UNL1        0.1564
     24 C          62.0746   87.3705   10.6420 C.ar    1  UNL1        0.0546
     25 C          61.5388   86.0507   10.1718 C.ar    1  UNL1        0.0146
     26 C          60.5070   86.0046    9.0840 C.ar    1  UNL1        0.0000
     27 C          60.0111   87.2783    8.4662 C.ar    1  UNL1        0.0119
     28 C          58.9794   87.2323    7.3784 C.3     1  UNL1        0.0342
     29 C          60.5469   88.5981    8.9364 C.ar    1  UNL1        0.1309
     30 O          60.0510   89.8720    8.3186 O.3     1  UNL1       -0.5058
     31 C          61.5786   88.6442   10.0242 C.ar    1  UNL1        0.0510
     32 H          59.4065   89.8432    7.6391 H       1  UNL1        0.2922
@<TRIPOS>BOND
     1    16    17    1
     2    17     8    1
     3     8     9   ar
     4     9    10   ar
     5    10    11    1
     6    10    12   ar
     7     1    12    1
     8     1     2    1
     9     2     3    1
    10     3     4   am
    11     4     5    2
    12     4     6    1
    13     6    18    1
    14    18    19   am
    15    19    20    2
    16    19    21   am
    17    21    24    1
    18    24    25   ar
    19    25    26   ar
    20    26    27   ar
    21    27    28    1
    22    27    29   ar
    23    29    30    1
    24    29    31   ar
    25    12    13   ar
    26    13    14    1
    27    13    15   ar
    28    15     8   ar
    29     6     1    1
    30    31    24   ar
    31     3     7    1
    32    18    22    1
    33    21    23    1
    34    30    32    1
@<TRIPOS>MOLECULE
*****
 32 34 0 0 0
SMALL
GASTEIGER

@<TRIPOS>ATOM
      1 C          64.7690   91.1910   14.5605 C.3     1  UNL1        0.0732
      2 C          64.7442   91.8099   15.9266 C.3     1  UNL1        0.0960
      3 N          63.7074   91.0944   16.7409 N.am    1  UNL1       -0.3026
      4 C          63.0914   90.0333   15.8780 C.2     1  UNL1        0.2408
      5 O          62.0093   89.0798   16.2903 O.2     1  UNL1       -0.2733
      6 C          63.7476   90.0930   14.5305 C.3     1  UNL1        0.1555
      7 H          63.4724   91.2874   17.6773 H       1  UNL1        0.1495
      8 C          67.4392   92.4137   11.1509 C.ar    1  UNL1        0.1432
      9 C          68.0381   92.0194   12.4683 C.ar    1  UNL1        0.0663
     10 C          67.1480   91.6119   13.6049 C.ar    1  UNL1        0.1414
     11 F          67.7470   91.2176   14.9224 F       1  UNL1       -0.2043
     12 C          65.6591   91.5986   13.4239 C.ar    1  UNL1        0.0363
     13 C          65.0602   91.9928   12.1065 C.ar    1  UNL1        0.1414
     14 F          63.5711   91.9796   11.9255 F       1  UNL1       -0.2043
     15 C          65.9502   92.4004   10.9699 C.ar    1  UNL1        0.0663
     16 C          67.8460   93.8189    9.0038 C.3     1  UNL1        0.2525
     17 O          68.3292   92.8213   10.0143 O.3     1  UNL1       -0.4713
     18 N          63.4368   89.2097   13.3586 N.am    1  UNL1       -0.2821
     19 C          63.4314   87.7189   13.5236 C.2     1  UNL1        0.3048
     20 O          63.7369   87.1112   14.8606 O.2     1  UNL1       -0.2525
     21 N          63.1206   86.8356   12.3518 N.am    1  UNL1       -0.2682
     22 H          63.2363   89.6085   12.4811 H       1  UNL1        0.1514
     23 H          62.9201   87.2344   11.4743 H       1  UNL1        0.1564
     24 C          63.1153   85.3448   12.5169 C.ar    1  UNL1        0.0546
     25 C          63.1868   84.4563   11.3105 C.ar    1  UNL1        0.0146
     26 C          63.1814   82.9654   11.4756 C.ar    1  UNL1        0.0000
     27 C          63.1046   82.3629   12.8471 C.ar    1  UNL1        0.0119
     28 C          63.0992   80.8721   13.0122 C.3     1  UNL1        0.0342
     29 C          63.0331   83.2514   14.0535 C.ar    1  UNL1        0.1309
     30 O          62.9562   82.6490   15.4252 O.3     1  UNL1       -0.5058
     31 C          63.0384   84.7423   13.8884 C.ar    1  UNL1        0.0510
     32 H          62.9529   81.7177   15.5283 H       1  UNL1        0.2922
@<TRIPOS>BOND
     1    16    17    1
     2    17     8    1
     3     8     9   ar
     4     9    10   ar
     5    10    11    1
     6    10    12   ar
     7     1    12    1
     8     1     2    1
     9     2     3    1
    10     3     4   am
    11     4     5    2
    12     4     6    1
    13     6    18    1
    14    18    19   am
    15    19    20    2
    16    19    21   am
    17    21    24    1
    18    24    25   ar
    19    25    26   ar
    20    26    27   ar
    21    27    28    1
    22    27    29   ar
    23    29    30    1
    24    29    31   ar
    25    12    13   ar
    26    13    14    1
    27    13    15   ar
    28    15     8   ar
    29     6     1    1
    30    31    24   ar
    31     3     7    1
    32    18    22    1
    33    21    23    1
    34    30    32    1
@<TRIPOS>MOLECULE
*****
 32 34 0 0 0
SMALL
GASTEIGER

@<TRIPOS>ATOM
      1 C          61.8070   90.2151   11.2759 C.3     1  UNL1        0.0732
      2 C          60.5145   90.9642   11.1412 C.3     1  UNL1        0.0960
      3 N          59.5228   90.0607   10.4702 N.am    1  UNL1       -0.3026
      4 C          60.2025   88.7532   10.1901 C.2     1  UNL1        0.2408
      5 O          59.5798   87.5598    9.5282 O.2     1  UNL1       -0.2733
      6 C          61.6142   88.8486   10.6880 C.3     1  UNL1        0.1555
      7 H          58.5897   90.2863   10.2519 H       1  UNL1        0.1495
      8 C          65.5976   91.7906   13.1196 C.ar    1  UNL1        0.1432
      9 C          65.2513   92.1398   11.7026 C.ar    1  UNL1        0.0663
     10 C          63.9878   91.6147   11.0880 C.ar    1  UNL1        0.1414
     11 F          63.6416   91.9640    9.6708 F       1  UNL1       -0.2043
     12 C          63.0705   90.7403   11.8904 C.ar    1  UNL1        0.0363
     13 C          63.4168   90.3910   13.3075 C.ar    1  UNL1        0.1414
     14 F          62.4995   89.5166   14.1100 F       1  UNL1       -0.2043
     15 C          64.6803   90.9162   13.9221 C.ar    1  UNL1        0.0663
     16 C          66.8352   93.5845   14.5339 C.3     1  UNL1        0.2525
     17 O          66.8611   92.3158   13.7342 O.3     1  UNL1       -0.4713
     18 N          62.6510   87.7674   10.6115 N.am    1  UNL1       -0.2821
     19 C          62.3930   86.4344   11.2489 C.2     1  UNL1        0.3048
     20 O          61.0980   86.1824   11.9629 O.2     1  UNL1       -0.2525
     21 N          63.4299   85.3531   11.1724 N.am    1  UNL1       -0.2682
     22 H          63.5009   87.9327   10.1430 H       1  UNL1        0.1514
     23 H          64.2798   85.5184   10.7039 H       1  UNL1        0.1564
     24 C          63.1718   84.0200   11.8099 C.ar    1  UNL1        0.0546
     25 C          63.1346   82.7801   10.9666 C.ar    1  UNL1        0.0146
     26 C          62.8765   81.4470   11.6040 C.ar    1  UNL1        0.0000
     27 C          62.6556   81.3538   13.0847 C.ar    1  UNL1        0.0119
     28 C          62.3975   80.0208   13.7221 C.3     1  UNL1        0.0342
     29 C          62.6928   82.5938   13.9280 C.ar    1  UNL1        0.1309
     30 O          62.4719   82.5007   15.4088 O.3     1  UNL1       -0.5058
     31 C          62.9509   83.9269   13.2905 C.ar    1  UNL1        0.0510
     32 H          62.3107   81.6680   15.8070 H       1  UNL1        0.2922
@<TRIPOS>BOND
     1    16    17    1
     2    17     8    1
     3     8     9   ar
     4     9    10   ar
     5    10    11    1
     6    10    12   ar
     7     1    12    1
     8     1     2    1
     9     2     3    1
    10     3     4   am
    11     4     5    2
    12     4     6    1
    13     6    18    1
    14    18    19   am
    15    19    20    2
    16    19    21   am
    17    21    24    1
    18    24    25   ar
    19    25    26   ar
    20    26    27   ar
    21    27    28    1
    22    27    29   ar
    23    29    30    1
    24    29    31   ar
    25    12    13   ar
    26    13    14    1
    27    13    15   ar
    28    15     8   ar
    29     6     1    1
    30    31    24   ar
    31     3     7    1
    32    18    22    1
    33    21    23    1
    34    30    32    1
@<TRIPOS>MOLECULE
*****
 32 34 0 0 0
SMALL
GASTEIGER

@<TRIPOS>ATOM
      1 C          64.7243   91.1725   14.5214 C.3     1  UNL1        0.0732
      2 C          64.6920   91.8200   15.8740 C.3     1  UNL1        0.0960
      3 N          63.6988   91.0789   16.7192 N.am    1  UNL1       -0.3026
      4 C          63.1173   89.9732   15.8889 C.2     1  UNL1        0.2408
      5 O          62.0836   88.9835   16.3381 O.2     1  UNL1       -0.2733
      6 C          63.7511   90.0311   14.5306 C.3     1  UNL1        0.1555
      7 H          63.4691   91.2824   17.6546 H       1  UNL1        0.1495
      8 C          67.2901   92.4327   11.0460 C.ar    1  UNL1        0.1432
      9 C          65.7995   92.3663   10.8925 C.ar    1  UNL1        0.0663
     10 C          64.9442   91.9462   12.0510 C.ar    1  UNL1        0.1414
     11 F          63.4535   91.8798   11.8974 F       1  UNL1       -0.2043
     12 C          65.5795   91.5926   13.3629 C.ar    1  UNL1        0.0363
     13 C          67.0702   91.6590   13.5164 C.ar    1  UNL1        0.1414
     14 F          67.7056   91.3053   14.8284 F       1  UNL1       -0.2043
     15 C          67.9254   92.0791   12.3579 C.ar    1  UNL1        0.0663
     16 C          67.9247   94.1862    9.2370 C.3     1  UNL1        0.2525
     17 O          68.1454   92.8528    9.8875 O.3     1  UNL1       -0.4713
     18 N          63.4623   89.1093   13.3830 N.am    1  UNL1       -0.2821
     19 C          63.4817   87.6240   13.5908 C.2     1  UNL1        0.3048
     20 O          63.7899   87.0602   14.9463 O.2     1  UNL1       -0.2525
     21 N          63.1929   86.7023   12.4432 N.am    1  UNL1       -0.2682
     22 H          63.2600   89.4793   12.4934 H       1  UNL1        0.1514
     23 H          62.9906   87.0722   11.5535 H       1  UNL1        0.1564
     24 C          63.2123   85.2169   12.6510 C.ar    1  UNL1        0.0546
     25 C          63.0540   84.6505   14.0310 C.ar    1  UNL1        0.0146
     26 C          63.0734   83.1651   14.2388 C.ar    1  UNL1        0.0000
     27 C          63.2511   82.2460   13.0668 C.ar    1  UNL1        0.0119
     28 C          63.2705   80.7606   13.2747 C.3     1  UNL1        0.0342
     29 C          63.4093   82.8124   11.6869 C.ar    1  UNL1        0.1309
     30 O          63.5870   81.8933   10.5147 O.3     1  UNL1       -0.5058
     31 C          63.3899   84.2978   11.4790 C.ar    1  UNL1        0.0510
     32 H          63.5991   80.9654   10.6446 H       1  UNL1        0.2922
@<TRIPOS>BOND
     1    16    17    1
     2    17     8    1
     3     8     9   ar
     4     9    10   ar
     5    10    11    1
     6    10    12   ar
     7     1    12    1
     8     1     2    1
     9     2     3    1
    10     3     4   am
    11     4     5    2
    12     4     6    1
    13     6    18    1
    14    18    19   am
    15    19    20    2
    16    19    21   am
    17    21    24    1
    18    24    25   ar
    19    25    26   ar
    20    26    27   ar
    21    27    28    1
    22    27    29   ar
    23    29    30    1
    24    29    31   ar
    25    12    13   ar
    26    13    14    1
    27    13    15   ar
    28    15     8   ar
    29     6     1    1
    30    31    24   ar
    31     3     7    1
    32    18    22    1
    33    21    23    1
    34    30    32    1
@<TRIPOS>MOLECULE
*****
 32 34 0 0 0
SMALL
GASTEIGER

@<TRIPOS>ATOM
      1 C          61.3532   86.7706    9.4240 C.3     1  UNL1        0.0732
      2 C          60.7311   86.8658    8.0624 C.3     1  UNL1        0.0960
      3 N          60.0094   88.1777    7.9731 N.am    1  UNL1       -0.3026
      4 C          60.1854   88.8934    9.2796 C.2     1  UNL1        0.2408
      5 O          59.6287   90.2419    9.6282 O.2     1  UNL1       -0.2733
      6 C          61.0159   88.0237   10.1763 C.3     1  UNL1        0.1555
      7 H          59.5082   88.5107    7.1939 H       1  UNL1        0.1495
      8 C          63.8013   83.3298   10.9789 C.ar    1  UNL1        0.1432
      9 C          63.9424   83.7656    9.5506 C.ar    1  UNL1        0.0663
     10 C          63.1264   84.9126    9.0323 C.ar    1  UNL1        0.1414
     11 F          63.2675   85.3484    7.6039 F       1  UNL1       -0.2043
     12 C          62.1692   85.6237    9.9423 C.ar    1  UNL1        0.0363
     13 C          62.0281   85.1879   11.3706 C.ar    1  UNL1        0.1414
     14 F          61.0709   85.8990   12.2807 F       1  UNL1       -0.2043
     15 C          62.8442   84.0409   11.8889 C.ar    1  UNL1        0.0663
     16 C          64.2088   81.4813   12.7585 C.3     1  UNL1        0.2525
     17 O          64.6173   82.1829   11.4972 O.3     1  UNL1       -0.4713
     18 N          61.4355   88.3499   11.5790 N.am    1  UNL1       -0.2821
     19 C          62.5644   89.3075   11.8207 C.2     1  UNL1        0.3048
     20 O          63.2739   89.9390   10.6596 O.2     1  UNL1       -0.2525
     21 N          62.9839   89.6337   13.2234 N.am    1  UNL1       -0.2682
     22 H          60.9698   87.9355   12.3410 H       1  UNL1        0.1514
     23 H          62.5183   89.2193   13.9854 H       1  UNL1        0.1564
     24 C          64.1128   90.5914   13.4650 C.ar    1  UNL1        0.0546
     25 C          65.0310   90.3888   14.6337 C.ar    1  UNL1        0.0146
     26 C          66.1600   91.3464   14.8754 C.ar    1  UNL1        0.0000
     27 C          66.3708   92.5066   13.9484 C.ar    1  UNL1        0.0119
     28 C          67.4998   93.4643   14.1901 C.3     1  UNL1        0.0342
     29 C          65.4526   92.7092   12.7797 C.ar    1  UNL1        0.1309
     30 O          65.6634   93.8695   11.8526 O.3     1  UNL1       -0.5058
     31 C          64.3237   91.7516   12.5381 C.ar    1  UNL1        0.0510
     32 H          66.3686   94.4677   12.0036 H       1  UNL1        0.2922
@<TRIPOS>BOND
     1    16    17    1
     2    17     8    1
     3     8     9   ar
     4     9    10   ar
     5    10    11    1
     6    10    12   ar
     7     1    12    1
     8     1     2    1
     9     2     3    1
    10     3     4   am
    11     4     5    2
    12     4     6    1
    13     6    18    1
    14    18    19   am
    15    19    20    2
    16    19    21   am
    17    21    24    1
    18    24    25   ar
    19    25    26   ar
    20    26    27   ar
    21    27    28    1
    22    27    29   ar
    23    29    30    1
    24    29    31   ar
    25    12    13   ar
    26    13    14    1
    27    13    15   ar
    28    15     8   ar
    29     6     1    1
    30    31    24   ar
    31     3     7    1
    32    18    22    1
    33    21    23    1
    34    30    32    1
@<TRIPOS>MOLECULE
*****
 32 34 0 0 0
SMALL
GASTEIGER

@<TRIPOS>ATOM
      1 C          61.3630   86.9713    9.5784 C.3     1  UNL1        0.0732
      2 C          60.7046   87.1642    8.2445 C.3     1  UNL1        0.0960
      3 N          60.0232   88.5005    8.2529 N.am    1  UNL1       -0.3026
      4 C          60.2605   89.1334    9.5920 C.2     1  UNL1        0.2408
      5 O          59.7580   90.4758   10.0342 O.2     1  UNL1       -0.2733
      6 C          61.0886   88.1883   10.4111 C.3     1  UNL1        0.1555
      7 H          59.5102   88.8932    7.5100 H       1  UNL1        0.1495
      8 C          63.7437   83.3731   10.8572 C.ar    1  UNL1        0.1432
      9 C          62.8260   84.0501   11.8315 C.ar    1  UNL1        0.0663
     10 C          62.0324   85.2495   11.4052 C.ar    1  UNL1        0.1414
     11 F          61.1146   85.9265   12.3796 F       1  UNL1       -0.2043
     12 C          62.1566   85.7719   10.0047 C.ar    1  UNL1        0.0363
     13 C          63.0743   85.0948    9.0304 C.ar    1  UNL1        0.1414
     14 F          63.1986   85.6172    7.6297 F       1  UNL1       -0.2043
     15 C          63.8679   83.8955    9.4566 C.ar    1  UNL1        0.0663
     16 C          64.2922   81.5506   12.6257 C.3     1  UNL1        0.2525
     17 O          64.5373   82.1737   11.2835 O.3     1  UNL1       -0.4713
     18 N          61.5595   88.4197   11.8164 N.am    1  UNL1       -0.2821
     19 C          62.6013   89.4619   12.0963 C.2     1  UNL1        0.3048
     20 O          63.1722   90.2729   10.9709 O.2     1  UNL1       -0.2525
     21 N          63.0722   89.6932   13.5016 N.am    1  UNL1       -0.2682
     22 H          61.1848   87.8874   12.5550 H       1  UNL1        0.1514
     23 H          62.6975   89.1610   14.2402 H       1  UNL1        0.1564
     24 C          64.1140   90.7355   13.7814 C.ar    1  UNL1        0.0546
     25 C          64.8969   91.3357   12.6515 C.ar    1  UNL1        0.0146
     26 C          65.9387   92.3780   12.9313 C.ar    1  UNL1        0.0000
     27 C          66.1977   92.8200   14.3411 C.ar    1  UNL1        0.0119
     28 C          67.2395   93.8623   14.6209 C.3     1  UNL1        0.0342
     29 C          65.4148   92.2198   15.4710 C.ar    1  UNL1        0.1309
     30 O          65.6737   92.6618   16.8809 O.3     1  UNL1       -0.5058
     31 C          64.3730   91.1775   15.1912 C.ar    1  UNL1        0.0510
     32 H          66.3245   93.3129   17.0558 H       1  UNL1        0.2922
@<TRIPOS>BOND
     1    16    17    1
     2    17     8    1
     3     8     9   ar
     4     9    10   ar
     5    10    11    1
     6    10    12   ar
     7     1    12    1
     8     1     2    1
     9     2     3    1
    10     3     4   am
    11     4     5    2
    12     4     6    1
    13     6    18    1
    14    18    19   am
    15    19    20    2
    16    19    21   am
    17    21    24    1
    18    24    25   ar
    19    25    26   ar
    20    26    27   ar
    21    27    28    1
    22    27    29   ar
    23    29    30    1
    24    29    31   ar
    25    12    13   ar
    26    13    14    1
    27    13    15   ar
    28    15     8   ar
    29     6     1    1
    30    31    24   ar
    31     3     7    1
    32    18    22    1
    33    21    23    1
    34    30    32    1
@<TRIPOS>MOLECULE
*****
 32 34 0 0 0
SMALL
GASTEIGER

@<TRIPOS>ATOM
      1 C          64.3001   91.1433   12.6591 C.3     1  UNL1        0.0732
      2 C          63.7453   91.8830   11.4781 C.3     1  UNL1        0.0960
      3 N          62.5866   91.0963   10.9409 N.am    1  UNL1       -0.3026
      4 C          62.4254   89.8702   11.7899 C.2     1  UNL1        0.2408
      5 O          61.3875   88.8026   11.6088 O.2     1  UNL1       -0.2733
      6 C          63.4844   89.8993   12.8518 C.3     1  UNL1        0.1555
      7 H          62.0297   91.3415   10.1670 H       1  UNL1        0.1495
      8 C          67.7978   92.4299   15.1813 C.ar    1  UNL1        0.1432
      9 C          67.9499   92.3088   13.6939 C.ar    1  UNL1        0.0663
     10 C          66.7840   91.8799   12.8532 C.ar    1  UNL1        0.1414
     11 F          66.9362   91.7587   11.3659 F       1  UNL1       -0.2043
     12 C          65.4660   91.5722   13.4998 C.ar    1  UNL1        0.0363
     13 C          65.3139   91.6933   14.9871 C.ar    1  UNL1        0.1414
     14 F          63.9958   91.3856   15.6338 F       1  UNL1       -0.2043
     15 C          66.4798   92.1222   15.8279 C.ar    1  UNL1        0.0663
     16 C          69.3432   94.3082   16.0943 C.3     1  UNL1        0.2525
     17 O          68.9637   92.8588   16.0220 O.3     1  UNL1       -0.4713
     18 N          63.6914   88.8658   13.9191 N.am    1  UNL1       -0.2821
     19 C          63.5183   87.4109   13.5979 C.2     1  UNL1        0.3048
     20 O          63.1381   86.9894   12.2094 O.2     1  UNL1       -0.2525
     21 N          63.7252   86.3774   14.6652 N.am    1  UNL1       -0.2682
     22 H          63.9409   89.1424   14.8304 H       1  UNL1        0.1514
     23 H          63.9747   86.6540   15.5765 H       1  UNL1        0.1564
     24 C          63.5520   84.9224   14.3439 C.ar    1  UNL1        0.0546
     25 C          62.4894   84.1225   15.0375 C.ar    1  UNL1        0.0146
     26 C          62.3163   82.6676   14.7162 C.ar    1  UNL1        0.0000
     27 C          63.2057   82.0125   13.7015 C.ar    1  UNL1        0.0119
     28 C          63.0325   80.5576   13.3802 C.3     1  UNL1        0.0342
     29 C          64.2683   82.8125   13.0079 C.ar    1  UNL1        0.1309
     30 O          65.1577   82.1574   11.9930 O.3     1  UNL1       -0.5058
     31 C          64.4414   84.2674   13.3291 C.ar    1  UNL1        0.0510
     32 H          65.0496   81.2485   11.7923 H       1  UNL1        0.2922
@<TRIPOS>BOND
     1    16    17    1
     2    17     8    1
     3     8     9   ar
     4     9    10   ar
     5    10    11    1
     6    10    12   ar
     7     1    12    1
     8     1     2    1
     9     2     3    1
    10     3     4   am
    11     4     5    2
    12     4     6    1
    13     6    18    1
    14    18    19   am
    15    19    20    2
    16    19    21   am
    17    21    24    1
    18    24    25   ar
    19    25    26   ar
    20    26    27   ar
    21    27    28    1
    22    27    29   ar
    23    29    30    1
    24    29    31   ar
    25    12    13   ar
    26    13    14    1
    27    13    15   ar
    28    15     8   ar
    29     6     1    1
    30    31    24   ar
    31     3     7    1
    32    18    22    1
    33    21    23    1
    34    30    32    1
@<TRIPOS>MOLECULE
*****
 32 34 0 0 0
SMALL
GASTEIGER

@<TRIPOS>ATOM
      1 C          61.8950   90.1738   11.2421 C.3     1  UNL1        0.0732
      2 C          60.6335   90.9240   10.9328 C.3     1  UNL1        0.0960
      3 N          59.7045   89.9919   10.2129 N.am    1  UNL1       -0.3026
      4 C          60.3919   88.6657   10.0772 C.2     1  UNL1        0.2408
      5 O          59.8250   87.4418    9.4207 O.2     1  UNL1       -0.2733
      6 C          61.7457   88.7780   10.7133 C.3     1  UNL1        0.1555
      7 H          58.8020   90.2121    9.8867 H       1  UNL1        0.1495
      8 C          65.4954   91.8210   13.3807 C.ar    1  UNL1        0.1432
      9 C          64.5683   90.8786   14.0893 C.ar    1  UNL1        0.0663
     10 C          63.3681   90.3295   13.3765 C.ar    1  UNL1        0.1414
     11 F          62.4410   89.3871   14.0852 F       1  UNL1       -0.2043
     12 C          63.0951   90.7229   11.9549 C.ar    1  UNL1        0.0363
     13 C          64.0223   91.6653   11.2463 C.ar    1  UNL1        0.1414
     14 F          63.7493   92.0586    9.8247 F       1  UNL1       -0.2043
     15 C          65.2224   92.2144   11.9592 C.ar    1  UNL1        0.0663
     16 C          66.6071   92.7232   15.5487 C.3     1  UNL1        0.2525
     17 O          66.6955   92.3701   14.0936 O.3     1  UNL1       -0.4713
     18 N          62.7703   87.6863   10.8045 N.am    1  UNL1       -0.2821
     19 C          62.4168   86.3776   11.4465 C.2     1  UNL1        0.3048
     20 O          61.0385   86.1605   11.9973 O.2     1  UNL1       -0.2525
     21 N          63.4414   85.2859   11.5377 N.am    1  UNL1       -0.2682
     22 H          63.6749   87.8288   10.4430 H       1  UNL1        0.1514
     23 H          64.3460   85.4283   11.1762 H       1  UNL1        0.1564
     24 C          63.0878   83.9772   12.1797 C.ar    1  UNL1        0.0546
     25 C          62.6994   83.9329   13.6279 C.ar    1  UNL1        0.0146
     26 C          62.3458   82.6242   14.2699 C.ar    1  UNL1        0.0000
     27 C          62.3805   81.3597   13.4638 C.ar    1  UNL1        0.0119
     28 C          62.0269   80.0510   14.1059 C.3     1  UNL1        0.0342
     29 C          62.7689   81.4040   12.0157 C.ar    1  UNL1        0.1309
     30 O          62.8037   80.1394   11.2095 O.3     1  UNL1       -0.5058
     31 C          63.1225   82.7127   11.3736 C.ar    1  UNL1        0.0510
     32 H          62.5828   79.3219   11.6105 H       1  UNL1        0.2922
@<TRIPOS>BOND
     1    16    17    1
     2    17     8    1
     3     8     9   ar
     4     9    10   ar
     5    10    11    1
     6    10    12   ar
     7     1    12    1
     8     1     2    1
     9     2     3    1
    10     3     4   am
    11     4     5    2
    12     4     6    1
    13     6    18    1
    14    18    19   am
    15    19    20    2
    16    19    21   am
    17    21    24    1
    18    24    25   ar
    19    25    26   ar
    20    26    27   ar
    21    27    28    1
    22    27    29   ar
    23    29    30    1
    24    29    31   ar
    25    12    13   ar
    26    13    14    1
    27    13    15   ar
    28    15     8   ar
    29     6     1    1
    30    31    24   ar
    31     3     7    1
    32    18    22    1
    33    21    23    1
    34    30    32    1
