@<TRIPOS>MOLECULE
*****
 30 34 0 0 0
SMALL
GASTEIGER

@<TRIPOS>ATOM
      1 C          63.0385   87.4874   12.7240 C.ar    1  UNL1        0.0866
      2 C          63.6643   87.5072   14.0871 C.ar    1  UNL1        0.1361
      3 N          64.0199   86.2188   14.7679 N.ar    1  UNL1       -0.2305
      4 C          63.7496   84.9105   14.0856 C.ar    1  UNL1        0.0827
      5 C          64.1051   83.6221   14.7665 C.ar    1  UNL1        0.0200
      6 C          63.8349   82.3139   14.0842 C.ar    1  UNL1        0.0129
      7 C          63.2090   82.2941   12.7211 C.ar    1  UNL1        0.0578
      8 CL         62.9388   80.9858   12.0389 Cl      1  UNL1       -0.0822
      9 C          62.8535   83.5825   12.0403 C.ar    1  UNL1        0.0129
     10 C          63.1238   84.8907   12.7226 C.ar    1  UNL1        0.0188
     11 C          62.7682   86.1792   12.0417 C.ar    1  UNL1        0.0087
     12 S          63.3485   91.8783    9.8076 S.2     1  UNL1        0.0107
     13 C          62.8255   90.7942   10.7027 C.ar    1  UNL1        0.2642
     14 N          61.4463   90.7231   11.2883 N.ar    1  UNL1       -0.2368
     15 N          61.3583   89.4758   12.1168 N.ar    1  UNL1       -0.1317
     16 C          62.6830   88.7759   12.0432 C.ar    1  UNL1        0.2509
     17 O          63.5898   89.5907   11.1692 O.2     1  UNL1       -0.4118
     18 H          60.7255   91.3798   11.1528 H       1  UNL1        0.1927
     19 N          63.9346   88.8155   14.7693 N.pl3   1  UNL1       -0.2931
     20 C          64.9319   89.7729   14.1873 C.3     1  UNL1        0.0922
     21 C          65.2021   91.0811   14.8696 C.3     1  UNL1        0.0215
     22 C          64.4750   91.4320   16.1338 C.3     1  UNL1        0.0035
     23 C          63.4777   90.4746   16.7158 C.3     1  UNL1        0.0215
     24 C          63.2075   89.1664   16.0335 C.3     1  UNL1        0.0922
     25 C          62.1424   86.1594   10.6787 C.ar    1  UNL1        0.0003
     26 C          60.7548   86.6944   10.4826 C.ar    1  UNL1        0.0000
     27 C          60.1290   86.6746    9.1196 C.ar    1  UNL1        0.0000
     28 C          60.8908   86.1198    7.9525 C.ar    1  UNL1        0.0000
     29 C          62.2783   85.5848    8.1486 C.ar    1  UNL1        0.0000
     30 C          62.9041   85.6046    9.5117 C.ar    1  UNL1        0.0000
@<TRIPOS>BOND
     1    12    13    2
     2    13    14   ar
     3    14    15   ar
     4    15    16   ar
     5    16     1    1
     6     1     2   ar
     7     2    19    1
     8    19    20    1
     9    20    21    1
    10    21    22    1
    11    22    23    1
    12    23    24    1
    13     2     3   ar
    14     3     4   ar
    15     4     5   ar
    16     5     6   ar
    17     6     7   ar
    18     7     8    1
    19     7     9   ar
    20     9    10   ar
    21    10    11   ar
    22    11    25    1
    23    25    26   ar
    24    26    27   ar
    25    27    28   ar
    26    28    29   ar
    27    29    30   ar
    28    16    17   ar
    29    17    13   ar
    30    11     1   ar
    31    30    25   ar
    32    24    19    1
    33    10     4   ar
    34    14    18    1
@<TRIPOS>MOLECULE
*****
 30 34 0 0 0
SMALL
GASTEIGER

@<TRIPOS>ATOM
      1 C          64.6774   91.5909   12.2238 C.ar    1  UNL1        0.0866
      2 C          64.6818   92.2577   10.8802 C.ar    1  UNL1        0.1361
      3 N          63.7007   91.8321    9.8285 N.ar    1  UNL1       -0.2305
      4 C          62.7151   90.7396   10.1203 C.ar    1  UNL1        0.0827
      5 C          61.7340   90.3140    9.0686 C.ar    1  UNL1        0.0200
      6 C          60.7485   89.2215    9.3604 C.ar    1  UNL1        0.0129
      7 C          60.7441   88.5547   10.7040 C.ar    1  UNL1        0.0578
      8 CL         59.7585   87.4622   10.9959 Cl      1  UNL1       -0.0822
      9 C          61.7252   88.9803   11.7558 C.ar    1  UNL1        0.0129
     10 C          62.7107   90.0728   11.4639 C.ar    1  UNL1        0.0188
     11 C          63.6919   90.4984   12.5157 C.ar    1  UNL1        0.0087
     12 S          69.1715   92.3207   14.8981 S.2     1  UNL1        0.0107
     13 C          67.7244   92.3520   14.5048 C.ar    1  UNL1        0.2642
     14 N          66.6127   92.9911   15.2832 N.ar    1  UNL1       -0.2368
     15 N          65.3361   92.7838   14.5235 N.ar    1  UNL1       -0.1317
     16 C          65.6586   92.0166   13.2756 C.ar    1  UNL1        0.2509
     17 O          67.1347   91.7497   13.2639 O.2     1  UNL1       -0.4118
     18 H          66.7049   93.4637   16.1419 H       1  UNL1        0.1927
     19 N          65.6674   93.3503   10.5883 N.pl3   1  UNL1       -0.2931
     20 C          66.9376   93.0380    9.8540 C.3     1  UNL1        0.0922
     21 C          67.9231   94.1305    9.5622 C.3     1  UNL1        0.0215
     22 C          67.6385   95.5352   10.0047 C.3     1  UNL1        0.0035
     23 C          66.3684   95.8474   10.7391 C.3     1  UNL1        0.0215
     24 C          65.3829   94.7549   11.0309 C.3     1  UNL1        0.0922
     25 C          63.6875   89.8316   13.8593 C.ar    1  UNL1        0.0003
     26 C          64.1907   88.4255   14.0004 C.ar    1  UNL1        0.0000
     27 C          64.1863   87.7587   15.3440 C.ar    1  UNL1        0.0000
     28 C          63.6787   88.4979   16.5465 C.ar    1  UNL1        0.0000
     29 C          63.1756   89.9039   16.4054 C.ar    1  UNL1        0.0000
     30 C          63.1800   90.5708   15.0618 C.ar    1  UNL1        0.0000
@<TRIPOS>BOND
     1    12    13    2
     2    13    14   ar
     3    14    15   ar
     4    15    16   ar
     5    16     1    1
     6     1     2   ar
     7     2    19    1
     8    19    20    1
     9    20    21    1
    10    21    22    1
    11    22    23    1
    12    23    24    1
    13     2     3   ar
    14     3     4   ar
    15     4     5   ar
    16     5     6   ar
    17     6     7   ar
    18     7     8    1
    19     7     9   ar
    20     9    10   ar
    21    10    11   ar
    22    11    25    1
    23    25    26   ar
    24    26    27   ar
    25    27    28   ar
    26    28    29   ar
    27    29    30   ar
    28    16    17   ar
    29    17    13   ar
    30    11     1   ar
    31    30    25   ar
    32    24    19    1
    33    10     4   ar
    34    14    18    1
@<TRIPOS>MOLECULE
*****
 30 34 0 0 0
SMALL
GASTEIGER

@<TRIPOS>ATOM
      1 C          60.8967   93.9391   -2.2181 C.ar    1  UNL1        0.0866
      2 C          62.3714   93.7204   -2.0528 C.ar    1  UNL1        0.1361
      3 N          62.9220   93.2935   -0.7244 N.ar    1  UNL1       -0.2305
      4 C          61.9978   93.0851    0.4386 C.ar    1  UNL1        0.0827
      5 C          62.5484   92.6582    1.7670 C.ar    1  UNL1        0.0200
      6 C          61.6243   92.4498    2.9299 C.ar    1  UNL1        0.0129
      7 C          60.1495   92.6685    2.7645 C.ar    1  UNL1        0.0578
      8 CL         59.2254   92.4601    3.9276 Cl      1  UNL1       -0.0822
      9 C          59.5990   93.0954    1.4362 C.ar    1  UNL1        0.0129
     10 C          60.5231   93.3038    0.2732 C.ar    1  UNL1        0.0188
     11 C          59.9725   93.7307   -1.0552 C.ar    1  UNL1        0.0087
     12 S          58.3893   93.8914   -6.8649 S.2     1  UNL1        0.0107
     13 C          59.1936   94.3441   -5.6824 C.ar    1  UNL1        0.2642
     14 N          59.8041   95.7019   -5.4990 N.ar    1  UNL1       -0.2368
     15 N          60.5164   95.7155   -4.1790 N.ar    1  UNL1       -0.1317
     16 C          60.3461   94.3660   -3.5466 C.ar    1  UNL1        0.2509
     17 O          59.5286   93.5184   -4.4756 O.2     1  UNL1       -0.4118
     18 H          59.7473   96.4525   -6.1336 H       1  UNL1        0.1927
     19 N          63.2956   93.9288   -3.2158 N.pl3   1  UNL1       -0.2931
     20 C          63.5314   92.8171   -4.1949 C.3     1  UNL1        0.0922
     21 C          64.4555   93.0255   -5.3578 C.3     1  UNL1        0.0215
     22 C          65.1438   94.3455   -5.5417 C.3     1  UNL1        0.0035
     23 C          64.9080   95.4571   -4.5626 C.3     1  UNL1        0.0215
     24 C          63.9839   95.2488   -3.3997 C.3     1  UNL1        0.0922
     25 C          58.4978   93.9494   -1.2206 C.ar    1  UNL1        0.0003
     26 C          57.9162   95.3185   -1.0272 C.ar    1  UNL1        0.0000
     27 C          56.4415   95.5372   -1.1926 C.ar    1  UNL1        0.0000
     28 C          55.5483   94.3866   -1.5513 C.ar    1  UNL1        0.0000
     29 C          56.1299   93.0176   -1.7447 C.ar    1  UNL1        0.0000
     30 C          57.6046   92.7990   -1.5793 C.ar    1  UNL1        0.0000
@<TRIPOS>BOND
     1    12    13    2
     2    13    14   ar
     3    14    15   ar
     4    15    16   ar
     5    16     1    1
     6     1     2   ar
     7     2    19    1
     8    19    20    1
     9    20    21    1
    10    21    22    1
    11    22    23    1
    12    23    24    1
    13     2     3   ar
    14     3     4   ar
    15     4     5   ar
    16     5     6   ar
    17     6     7   ar
    18     7     8    1
    19     7     9   ar
    20     9    10   ar
    21    10    11   ar
    22    11    25    1
    23    25    26   ar
    24    26    27   ar
    25    27    28   ar
    26    28    29   ar
    27    29    30   ar
    28    16    17   ar
    29    17    13   ar
    30    11     1   ar
    31    30    25   ar
    32    24    19    1
    33    10     4   ar
    34    14    18    1
@<TRIPOS>MOLECULE
*****
 30 34 0 0 0
SMALL
GASTEIGER

@<TRIPOS>ATOM
      1 C          60.2593   94.2642   -2.3485 C.ar    1  UNL1        0.0866
      2 C          59.3266   94.1215   -1.1825 C.ar    1  UNL1        0.1361
      3 N          59.8737   93.8393    0.1854 N.ar    1  UNL1       -0.2305
      4 C          61.3535   93.6998    0.3872 C.ar    1  UNL1        0.0827
      5 C          61.9006   93.4176    1.7551 C.ar    1  UNL1        0.0200
      6 C          63.3804   93.2782    1.9569 C.ar    1  UNL1        0.0129
      7 C          64.3131   93.4209    0.7908 C.ar    1  UNL1        0.0578
      8 CL         65.7929   93.2815    0.9927 Cl      1  UNL1       -0.0822
      9 C          63.7660   93.7032   -0.5770 C.ar    1  UNL1        0.0129
     10 C          62.2863   93.8426   -0.7788 C.ar    1  UNL1        0.0188
     11 C          61.7391   94.1248   -2.1467 C.ar    1  UNL1        0.0087
     12 S          58.0161   93.6381   -7.0874 S.2     1  UNL1        0.0107
     13 C          58.6811   94.2586   -5.8946 C.ar    1  UNL1        0.2642
     14 N          59.0594   95.7027   -5.7480 N.ar    1  UNL1       -0.2368
     15 N          59.6967   95.8806   -4.4018 N.ar    1  UNL1       -0.1317
     16 C          59.7122   94.5465   -3.7164 C.ar    1  UNL1        0.2509
     17 O          59.0846   93.5440   -4.6390 O.2     1  UNL1       -0.4118
     18 H          58.9148   96.4097   -6.4177 H       1  UNL1        0.1927
     19 N          57.8468   94.2609   -1.3843 N.pl3   1  UNL1       -0.2931
     20 C          57.0187   93.0559   -1.7191 C.3     1  UNL1        0.0922
     21 C          55.5389   93.1954   -1.9209 C.3     1  UNL1        0.0215
     22 C          54.8872   94.5399   -1.7880 C.3     1  UNL1        0.0035
     23 C          55.7154   95.7449   -1.4532 C.3     1  UNL1        0.0215
     24 C          57.1951   95.6054   -1.2514 C.3     1  UNL1        0.0922
     25 C          62.6718   94.2676   -3.3128 C.ar    1  UNL1        0.0003
     26 C          63.2121   95.6179   -3.6801 C.ar    1  UNL1        0.0000
     27 C          64.1448   95.7607   -4.8461 C.ar    1  UNL1        0.0000
     28 C          64.5373   94.5531   -5.6448 C.ar    1  UNL1        0.0000
     29 C          63.9970   93.2029   -5.2775 C.ar    1  UNL1        0.0000
     30 C          63.0643   93.0601   -4.1114 C.ar    1  UNL1        0.0000
@<TRIPOS>BOND
     1    12    13    2
     2    13    14   ar
     3    14    15   ar
     4    15    16   ar
     5    16     1    1
     6     1     2   ar
     7     2    19    1
     8    19    20    1
     9    20    21    1
    10    21    22    1
    11    22    23    1
    12    23    24    1
    13     2     3   ar
    14     3     4   ar
    15     4     5   ar
    16     5     6   ar
    17     6     7   ar
    18     7     8    1
    19     7     9   ar
    20     9    10   ar
    21    10    11   ar
    22    11    25    1
    23    25    26   ar
    24    26    27   ar
    25    27    28   ar
    26    28    29   ar
    27    29    30   ar
    28    16    17   ar
    29    17    13   ar
    30    11     1   ar
    31    30    25   ar
    32    24    19    1
    33    10     4   ar
    34    14    18    1
