@<TRIPOS>MOLECULE
*****
 35 38 0 0 0
SMALL
GASTEIGER

@<TRIPOS>ATOM
      1 N          60.4467   89.7964    7.9000 N.am    1  UNL1       -0.2765
      2 C          59.4781   89.4297    6.8150 C.2     1  UNL1        0.3050
      3 O          58.9956   88.0151    6.6870 O.2     1  UNL1       -0.2646
      4 H          60.7633   90.7248    7.9840 H       1  UNL1        0.1553
      5 C          61.9048   86.6533   10.7713 C.ar    1  UNL1       -0.0224
      6 C          61.0596   86.2611    9.5959 C.ar    1  UNL1       -0.0030
      7 C          60.5735   87.3088    8.6388 C.ar    1  UNL1        0.0144
      8 C          60.9327   88.7487    8.8571 C.ar    1  UNL1        0.0506
      9 C          61.7780   89.1408   10.0326 C.ar    1  UNL1        0.0144
     10 C          62.2640   88.0931   10.9896 C.ar    1  UNL1       -0.0030
     11 C          63.3630   83.5101   13.6426 C.3     1  UNL1        0.0056
     12 C          62.7185   83.1044   12.3503 C.3     1  UNL1        0.0007
     13 C          62.2324   84.1521   11.3932 C.3     1  UNL1        0.0044
     14 C          62.3909   85.6055   11.7284 C.3     1  UNL1        0.0223
     15 C          63.0354   86.0112   13.0206 C.3     1  UNL1        0.0044
     16 C          63.5215   84.9635   13.9777 C.3     1  UNL1        0.0007
     17 C          63.8491   82.4624   14.5997 C.3     1  UNL1        0.0417
     18 O          64.2139   79.8949   14.4414 O.co2   1  UNL1       -0.5492
     19 C          63.2893   81.0722   14.5375 C.2     1  UNL1        0.0503
     20 O          61.8049   80.8591   14.5715 O.co2   1  UNL1       -0.5492
     21 C          58.9920   90.4774    5.8579 C.ar    1  UNL1        0.3052
     22 N          57.5679   90.9110    5.6740 N.ar    1  UNL1       -0.1010
     23 N          57.5405   91.9771    4.6191 N.ar    1  UNL1       -0.0919
     24 C          58.9477   92.2024    4.1510 C.ar    1  UNL1        0.3126
     25 O          59.8449   91.2755    4.9167 O.2     1  UNL1       -0.4006
     26 N          59.3816   93.1824    3.1017 N.pl3   1  UNL1       -0.2664
     27 H          58.7445   93.8494    2.7575 H       1  UNL1        0.1566
     28 C          60.7862   93.1462    2.5766 C.ar    1  UNL1        0.0541
     29 C          61.2448   94.1784    1.5895 C.ar    1  UNL1        0.0172
     30 C          62.6494   94.1422    1.0645 C.ar    1  UNL1        0.0332
     31 C          63.5956   93.0738    1.5265 C.ar    1  UNL1        0.1675
     32 F          65.0001   93.0377    1.0015 F       1  UNL1       -0.2018
     33 C          63.1370   92.0417    2.5136 C.ar    1  UNL1        0.1686
     34 F          64.0831   90.9733    2.9757 F       1  UNL1       -0.2018
     35 C          61.7324   92.0779    3.0387 C.ar    1  UNL1        0.0467
@<TRIPOS>UNITY_ATOM_ATTR
18 1
charge -1
@<TRIPOS>BOND
     1    18    19   ar
     2    19    20   ar
     3    19    17    1
     4    11    17    1
     5    11    12    1
     6    12    13    1
     7    13    14    1
     8    14     5    1
     9     5     6   ar
    10     6     7   ar
    11     7     8   ar
    12     8     1    1
    13     1     2   am
    14     2     3    2
    15     2    21    1
    16    21    22   ar
    17    22    23   ar
    18    23    24   ar
    19    24    26    1
    20    26    28    1
    21    28    29   ar
    22    29    30   ar
    23    30    31   ar
    24    31    32    1
    25    31    33   ar
    26    33    34    1
    27    33    35   ar
    28    24    25   ar
    29     8     9   ar
    30     9    10   ar
    31    14    15    1
    32    15    16    1
    33    16    11    1
    34    10     5   ar
    35    25    21   ar
    36    35    28   ar
    37     1     4    1
    38    26    27    1
@<TRIPOS>MOLECULE
*****
 35 38 0 0 0
SMALL
GASTEIGER

@<TRIPOS>ATOM
      1 N          60.3739   89.7254    7.8618 N.am    1  UNL1       -0.2765
      2 C          59.5196   89.4495    6.6601 C.2     1  UNL1        0.3050
      3 O          59.1157   88.0421    6.3342 O.2     1  UNL1       -0.2646
      4 H          60.6389   90.6491    8.0757 H       1  UNL1        0.1553
      5 C          61.7250   86.3312   10.4893 C.ar    1  UNL1       -0.0224
      6 C          62.0507   87.7463   10.8653 C.ar    1  UNL1       -0.0030
      7 C          61.6004   88.8777    9.9894 C.ar    1  UNL1        0.0144
      8 C          60.8242   88.5940    8.7376 C.ar    1  UNL1        0.0506
      9 C          60.4985   87.1790    8.3616 C.ar    1  UNL1        0.0144
     10 C          60.9489   86.0475    9.2374 C.ar    1  UNL1       -0.0030
     11 C          63.0761   82.9370   13.1168 C.3     1  UNL1        0.0056
     12 C          62.7744   84.2773   13.7188 C.3     1  UNL1        0.0007
     13 C          62.3240   85.4087   12.8430 C.3     1  UNL1        0.0044
     14 C          62.1754   85.1998   11.3651 C.3     1  UNL1        0.0223
     15 C          62.4771   83.8595   10.7630 C.3     1  UNL1        0.0044
     16 C          62.9275   82.7281   11.6389 C.3     1  UNL1        0.0007
     17 C          63.5265   81.8056   13.9926 C.3     1  UNL1        0.0417
     18 O          61.1444   80.7807   14.1522 O.co2   1  UNL1       -0.5492
     19 C          62.6348   80.6176   14.2010 C.2     1  UNL1        0.0503
     20 O          63.2333   79.2664   14.4581 O.co2   1  UNL1       -0.5492
     21 C          59.0693   90.5809    5.7843 C.ar    1  UNL1        0.3052
     22 N          57.6472   90.9449    5.4757 N.ar    1  UNL1       -0.1010
     23 N          57.6609   92.1359    4.5640 N.ar    1  UNL1       -0.0919
     24 C          59.0915   92.5080    4.3090 C.ar    1  UNL1        0.3126
     25 O          59.9620   91.5470    5.0632 O.2     1  UNL1       -0.4006
     26 N          59.5680   93.6421    3.4506 N.pl3   1  UNL1       -0.2664
     27 H          59.4727   94.5705    3.7640 H       1  UNL1        0.1566
     28 C          60.1898   93.3616    2.1146 C.ar    1  UNL1        0.0541
     29 C          61.6822   93.2885    1.9825 C.ar    1  UNL1        0.0172
     30 C          62.3040   93.0080    0.6465 C.ar    1  UNL1        0.0332
     31 C          61.4334   92.8006   -0.5572 C.ar    1  UNL1        0.1675
     32 F          62.0552   92.5202   -1.8931 F       1  UNL1       -0.2018
     33 C          59.9410   92.8737   -0.4251 C.ar    1  UNL1        0.1686
     34 F          59.0704   92.6663   -1.6288 F       1  UNL1       -0.2018
     35 C          59.3192   93.1542    0.9109 C.ar    1  UNL1        0.0467
@<TRIPOS>UNITY_ATOM_ATTR
18 1
charge -1
@<TRIPOS>BOND
     1    18    19   ar
     2    19    20   ar
     3    19    17    1
     4    11    17    1
     5    11    12    1
     6    12    13    1
     7    13    14    1
     8    14     5    1
     9     5     6   ar
    10     6     7   ar
    11     7     8   ar
    12     8     1    1
    13     1     2   am
    14     2     3    2
    15     2    21    1
    16    21    22   ar
    17    22    23   ar
    18    23    24   ar
    19    24    26    1
    20    26    28    1
    21    28    29   ar
    22    29    30   ar
    23    30    31   ar
    24    31    32    1
    25    31    33   ar
    26    33    34    1
    27    33    35   ar
    28    24    25   ar
    29     8     9   ar
    30     9    10   ar
    31    14    15    1
    32    15    16    1
    33    16    11    1
    34    10     5   ar
    35    25    21   ar
    36    35    28   ar
    37     1     4    1
    38    26    27    1
@<TRIPOS>MOLECULE
*****
 35 38 0 0 0
SMALL
GASTEIGER

@<TRIPOS>ATOM
      1 N          60.8566   90.5349    5.3839 N.am    1  UNL1       -0.2765
      2 C          59.5288   90.0567    5.8919 C.2     1  UNL1        0.3050
      3 O          58.2653   90.4815    5.2040 O.2     1  UNL1       -0.2646
      4 H          61.6859   90.2561    5.8354 H       1  UNL1        0.1553
      5 C          61.0499   93.2439    1.7959 C.ar    1  UNL1       -0.0224
      6 C          59.8271   93.2358    2.6645 C.ar    1  UNL1       -0.0030
      7 C          59.7627   92.3328    3.8605 C.ar    1  UNL1        0.0144
      8 C          60.9211   91.4379    4.1879 C.ar    1  UNL1        0.0506
      9 C          62.1439   91.4460    3.3192 C.ar    1  UNL1        0.0144
     10 C          62.2083   92.3490    2.1232 C.ar    1  UNL1       -0.0030
     11 C          61.2431   95.9529   -1.7922 C.3     1  UNL1        0.0056
     12 C          62.1221   94.7396   -1.7202 C.3     1  UNL1        0.0007
     13 C          62.0577   93.8366   -0.5242 C.3     1  UNL1        0.0044
     14 C          61.1143   94.1469    0.5998 C.3     1  UNL1        0.0223
     15 C          60.2353   95.3602    0.5279 C.3     1  UNL1        0.0044
     16 C          60.2997   96.2632   -0.6681 C.3     1  UNL1        0.0007
     17 C          61.3076   96.8559   -2.9882 C.3     1  UNL1        0.0417
     18 O          62.6599   96.2762   -5.1295 O.co2   1  UNL1       -0.5492
     19 C          61.3676   96.2703   -4.3678 C.2     1  UNL1        0.0503
     20 O          60.1355   95.6787   -4.9857 O.co2   1  UNL1       -0.5492
     21 C          59.4644   89.1537    7.0879 C.ar    1  UNL1        0.3052
     22 N          58.3444   88.2143    7.4242 N.ar    1  UNL1       -0.1010
     23 N          58.6964   87.5115    8.7017 N.ar    1  UNL1       -0.0919
     24 C          60.0341   88.0166    9.1551 C.ar    1  UNL1        0.3126
     25 O          60.5088   89.0315    8.1577 O.2     1  UNL1       -0.4006
     26 N          60.7683   87.5829   10.3891 N.pl3   1  UNL1       -0.2664
     27 H          60.6449   88.0739   11.2335 H       1  UNL1        0.1566
     28 C          61.6905   86.4010   10.3368 C.ar    1  UNL1        0.0541
     29 C          62.3131   85.9926    9.0346 C.ar    1  UNL1        0.0172
     30 C          63.2353   84.8107    8.9823 C.ar    1  UNL1        0.0332
     31 C          63.5350   84.0372   10.2321 C.ar    1  UNL1        0.1675
     32 F          64.4571   82.8554   10.1797 F       1  UNL1       -0.2018
     33 C          62.9124   84.4456   11.5342 C.ar    1  UNL1        0.1686
     34 F          63.2120   83.6723   12.7841 F       1  UNL1       -0.2018
     35 C          61.9902   85.6275   11.5866 C.ar    1  UNL1        0.0467
@<TRIPOS>UNITY_ATOM_ATTR
18 1
charge -1
@<TRIPOS>BOND
     1    18    19   ar
     2    19    20   ar
     3    19    17    1
     4    11    17    1
     5    11    12    1
     6    12    13    1
     7    13    14    1
     8    14     5    1
     9     5     6   ar
    10     6     7   ar
    11     7     8   ar
    12     8     1    1
    13     1     2   am
    14     2     3    2
    15     2    21    1
    16    21    22   ar
    17    22    23   ar
    18    23    24   ar
    19    24    26    1
    20    26    28    1
    21    28    29   ar
    22    29    30   ar
    23    30    31   ar
    24    31    32    1
    25    31    33   ar
    26    33    34    1
    27    33    35   ar
    28    24    25   ar
    29     8     9   ar
    30     9    10   ar
    31    14    15    1
    32    15    16    1
    33    16    11    1
    34    10     5   ar
    35    25    21   ar
    36    35    28   ar
    37     1     4    1
    38    26    27    1
@<TRIPOS>MOLECULE
*****
 35 38 0 0 0
SMALL
GASTEIGER

@<TRIPOS>ATOM
      1 N          64.7716   88.1260   14.7296 N.am    1  UNL1       -0.2765
      2 C          64.4118   89.2989   13.8666 C.2     1  UNL1        0.3050
      3 O          63.6862   89.0827   12.5717 O.2     1  UNL1       -0.2646
      4 H          65.2478   88.2680   15.5795 H       1  UNL1        0.1553
      5 C          63.6746   83.9586   13.4339 C.ar    1  UNL1       -0.0224
      6 C          63.0762   85.1432   12.7351 C.ar    1  UNL1       -0.0030
      7 C          63.4419   86.5324   13.1670 C.ar    1  UNL1        0.0144
      8 C          64.4060   86.7369   14.2977 C.ar    1  UNL1        0.0506
      9 C          65.0044   85.5522   14.9966 C.ar    1  UNL1        0.0144
     10 C          64.6387   84.1631   14.5647 C.ar    1  UNL1       -0.0030
     11 C          62.5777   79.7911   12.1382 C.3     1  UNL1        0.0056
     12 C          62.4435   80.1885   13.5783 C.3     1  UNL1        0.0007
     13 C          62.8091   81.5777   14.0102 C.3     1  UNL1        0.0044
     14 C          63.3090   82.5694   13.0020 C.3     1  UNL1        0.0223
     15 C          63.4432   82.1720   11.5619 C.3     1  UNL1        0.0044
     16 C          63.0775   80.7828   11.1300 C.3     1  UNL1        0.0007
     17 C          62.2120   78.4020   11.7063 C.3     1  UNL1        0.0417
     18 O          62.9343   78.7029    9.2288 O.co2   1  UNL1       -0.5492
     19 C          62.7865   77.8338   10.4425 C.2     1  UNL1        0.0503
     20 O          63.2131   76.3966   10.3924 O.co2   1  UNL1       -0.5492
     21 C          64.7774   90.6881   14.2986 C.ar    1  UNL1        0.3052
     22 N          64.4478   91.3159   15.6203 N.ar    1  UNL1       -0.1010
     23 N          65.0036   92.7092   15.6232 N.ar    1  UNL1       -0.0919
     24 C          65.6767   92.9424   14.3032 C.ar    1  UNL1        0.3126
     25 O          65.5370   91.6933   13.4844 O.2     1  UNL1       -0.4006
     26 N          66.3682   94.2033   13.8767 N.pl3   1  UNL1       -0.2664
     27 H          66.7275   94.8209   14.5539 H       1  UNL1        0.1566
     28 C          66.5121   94.5233   12.4183 C.ar    1  UNL1        0.0541
     29 C          66.1801   95.8969   11.9155 C.ar    1  UNL1        0.0172
     30 C          66.3240   96.2169   10.4571 C.ar    1  UNL1        0.0332
     31 C          66.8001   95.1633    9.5014 C.ar    1  UNL1        0.1675
     32 F          66.9440   95.4832    8.0431 F       1  UNL1       -0.2018
     33 C          67.1321   93.7896   10.0042 C.ar    1  UNL1        0.1686
     34 F          67.6082   92.7359    9.0487 F       1  UNL1       -0.2018
     35 C          66.9882   93.4697   11.4627 C.ar    1  UNL1        0.0467
@<TRIPOS>UNITY_ATOM_ATTR
18 1
charge -1
@<TRIPOS>BOND
     1    18    19   ar
     2    19    20   ar
     3    19    17    1
     4    11    17    1
     5    11    12    1
     6    12    13    1
     7    13    14    1
     8    14     5    1
     9     5     6   ar
    10     6     7   ar
    11     7     8   ar
    12     8     1    1
    13     1     2   am
    14     2     3    2
    15     2    21    1
    16    21    22   ar
    17    22    23   ar
    18    23    24   ar
    19    24    26    1
    20    26    28    1
    21    28    29   ar
    22    29    30   ar
    23    30    31   ar
    24    31    32    1
    25    31    33   ar
    26    33    34    1
    27    33    35   ar
    28    24    25   ar
    29     8     9   ar
    30     9    10   ar
    31    14    15    1
    32    15    16    1
    33    16    11    1
    34    10     5   ar
    35    25    21   ar
    36    35    28   ar
    37     1     4    1
    38    26    27    1
@<TRIPOS>MOLECULE
*****
 35 38 0 0 0
SMALL
GASTEIGER

@<TRIPOS>ATOM
      1 N          64.8109   88.1300   14.7096 N.am    1  UNL1       -0.2765
      2 C          64.3925   89.3099   13.8834 C.2     1  UNL1        0.3050
      3 O          63.6012   89.1023   12.6261 O.2     1  UNL1       -0.2646
      4 H          65.3303   88.2663   15.5348 H       1  UNL1        0.1553
      5 C          63.6923   83.9675   13.4167 C.ar    1  UNL1       -0.0224
      6 C          64.6538   84.1677   14.5504 C.ar    1  UNL1       -0.0030
      7 C          65.0267   85.5553   14.9813 C.ar    1  UNL1        0.0144
      8 C          64.4380   86.7425   14.2786 C.ar    1  UNL1        0.0506
      9 C          63.4765   86.5423   13.1449 C.ar    1  UNL1        0.0144
     10 C          63.1036   85.1548   12.7139 C.ar    1  UNL1       -0.0030
     11 C          62.5736   79.8049   12.1237 C.3     1  UNL1        0.0056
     12 C          63.0895   80.7898   11.1169 C.3     1  UNL1        0.0007
     13 C          63.4624   82.1773   11.5478 C.3     1  UNL1        0.0044
     14 C          63.3194   82.5800   12.9857 C.3     1  UNL1        0.0223
     15 C          62.8035   81.5951   13.9925 C.3     1  UNL1        0.0044
     16 C          62.4306   80.2076   13.5615 C.3     1  UNL1        0.0007
     17 C          62.2007   78.4174   11.6927 C.3     1  UNL1        0.0417
     18 O          63.1986   76.4022   10.3914 O.co2   1  UNL1       -0.5492
     19 C          62.7796   77.8419   10.4343 C.2     1  UNL1        0.0503
     20 O          62.9396   78.7061    9.2187 O.co2   1  UNL1       -0.5492
     21 C          64.7654   90.6975   14.3144 C.ar    1  UNL1        0.3052
     22 N          64.4432   91.3262   15.6376 N.ar    1  UNL1       -0.1010
     23 N          65.0046   92.7172   15.6388 N.ar    1  UNL1       -0.0919
     24 C          65.6738   92.9481   14.3164 C.ar    1  UNL1        0.3126
     25 O          65.5260   91.6999   13.4977 O.2     1  UNL1       -0.4006
     26 N          66.3688   94.2064   13.8877 N.pl3   1  UNL1       -0.2664
     27 H          66.7328   94.8225   14.5638 H       1  UNL1        0.1566
     28 C          66.5091   94.5260   12.4289 C.ar    1  UNL1        0.0541
     29 C          66.1697   95.8977   11.9256 C.ar    1  UNL1        0.0172
     30 C          66.3101   96.2173   10.4667 C.ar    1  UNL1        0.0332
     31 C          66.7898   95.1652    9.5112 C.ar    1  UNL1        0.1675
     32 F          66.9301   95.4848    8.0524 F       1  UNL1       -0.2018
     33 C          67.1291   93.7936   10.0145 C.ar    1  UNL1        0.1686
     34 F          67.6088   92.7414    9.0590 F       1  UNL1       -0.2018
     35 C          66.9888   93.4739   11.4733 C.ar    1  UNL1        0.0467
@<TRIPOS>UNITY_ATOM_ATTR
18 1
charge -1
@<TRIPOS>BOND
     1    18    19   ar
     2    19    20   ar
     3    19    17    1
     4    11    17    1
     5    11    12    1
     6    12    13    1
     7    13    14    1
     8    14     5    1
     9     5     6   ar
    10     6     7   ar
    11     7     8   ar
    12     8     1    1
    13     1     2   am
    14     2     3    2
    15     2    21    1
    16    21    22   ar
    17    22    23   ar
    18    23    24   ar
    19    24    26    1
    20    26    28    1
    21    28    29   ar
    22    29    30   ar
    23    30    31   ar
    24    31    32    1
    25    31    33   ar
    26    33    34    1
    27    33    35   ar
    28    24    25   ar
    29     8     9   ar
    30     9    10   ar
    31    14    15    1
    32    15    16    1
    33    16    11    1
    34    10     5   ar
    35    25    21   ar
    36    35    28   ar
    37     1     4    1
    38    26    27    1
@<TRIPOS>MOLECULE
*****
 35 38 0 0 0
SMALL
GASTEIGER

@<TRIPOS>ATOM
      1 N          60.9348   90.8146    5.5023 N.am    1  UNL1       -0.2765
      2 C          59.7014   90.1326    6.0156 C.2     1  UNL1        0.3050
      3 O          58.4189   90.2205    5.2425 O.2     1  UNL1       -0.2646
      4 H          61.7765   90.7569    6.0097 H       1  UNL1        0.1553
      5 C          60.7879   93.1246    1.6432 C.ar    1  UNL1       -0.0224
      6 C          59.5994   93.1166    2.5582 C.ar    1  UNL1       -0.0030
      7 C          59.6484   92.3466    3.8446 C.ar    1  UNL1        0.0144
      8 C          60.8858   91.5846    4.2159 C.ar    1  UNL1        0.0506
      9 C          62.0743   91.5925    3.3009 C.ar    1  UNL1        0.0144
     10 C          62.0253   92.3625    2.0145 C.ar    1  UNL1       -0.0030
     11 C          60.6409   95.4345   -2.2159 C.3     1  UNL1        0.0056
     12 C          59.8766   95.9215   -1.0207 C.3     1  UNL1        0.0007
     13 C          59.9255   95.1515    0.2656 C.3     1  UNL1        0.0044
     14 C          60.7389   93.8945    0.3568 C.3     1  UNL1        0.0223
     15 C          61.5032   93.4075   -0.8384 C.3     1  UNL1        0.0044
     16 C          61.4543   94.1775   -2.1247 C.3     1  UNL1        0.0007
     17 C          60.5919   96.2045   -3.5023 C.3     1  UNL1        0.0417
     18 O          59.7962   94.5507   -5.3413 O.co2   1  UNL1       -0.5492
     19 C          60.8258   95.5015   -4.8065 C.2     1  UNL1        0.0503
     20 O          62.0894   95.7492   -5.5760 O.co2   1  UNL1       -0.5492
     21 C          59.7504   89.3626    7.3019 C.ar    1  UNL1        0.3052
     22 N          59.0745   88.0507    7.5705 N.ar    1  UNL1       -0.1010
     23 N          59.3902   87.6466    8.9802 N.ar    1  UNL1       -0.0919
     24 C          60.2613   88.7088    9.5828 C.ar    1  UNL1        0.3126
     25 O          60.4839   89.7694    8.5456 O.2     1  UNL1       -0.4006
     26 N          60.8129   88.7102   10.9776 N.pl3   1  UNL1       -0.2664
     27 H          60.4081   88.1364   11.6677 H       1  UNL1        0.1566
     28 C          61.9813   89.5859   11.3213 C.ar    1  UNL1        0.0541
     29 C          62.4393   90.6384   10.3557 C.ar    1  UNL1        0.0172
     30 C          63.6077   91.5141   10.6993 C.ar    1  UNL1        0.0332
     31 C          64.3181   91.3373   12.0085 C.ar    1  UNL1        0.1675
     32 F          65.4864   92.2129   12.3520 F       1  UNL1       -0.2018
     33 C          63.8601   90.2848   12.9741 C.ar    1  UNL1        0.1686
     34 F          64.5705   90.1078   14.2833 F       1  UNL1       -0.2018
     35 C          62.6917   89.4091   12.6305 C.ar    1  UNL1        0.0467
@<TRIPOS>UNITY_ATOM_ATTR
18 1
charge -1
@<TRIPOS>BOND
     1    18    19   ar
     2    19    20   ar
     3    19    17    1
     4    11    17    1
     5    11    12    1
     6    12    13    1
     7    13    14    1
     8    14     5    1
     9     5     6   ar
    10     6     7   ar
    11     7     8   ar
    12     8     1    1
    13     1     2   am
    14     2     3    2
    15     2    21    1
    16    21    22   ar
    17    22    23   ar
    18    23    24   ar
    19    24    26    1
    20    26    28    1
    21    28    29   ar
    22    29    30   ar
    23    30    31   ar
    24    31    32    1
    25    31    33   ar
    26    33    34    1
    27    33    35   ar
    28    24    25   ar
    29     8     9   ar
    30     9    10   ar
    31    14    15    1
    32    15    16    1
    33    16    11    1
    34    10     5   ar
    35    25    21   ar
    36    35    28   ar
    37     1     4    1
    38    26    27    1
@<TRIPOS>MOLECULE
*****
 35 38 0 0 0
SMALL
GASTEIGER

@<TRIPOS>ATOM
      1 N          60.9629   90.9979    5.9376 N.am    1  UNL1       -0.2765
      2 C          59.8658   90.1144    6.4532 C.2     1  UNL1        0.3050
      3 O          58.7263   89.7322    5.5557 O.2     1  UNL1       -0.2646
      4 H          61.7108   91.2487    6.5266 H       1  UNL1        0.1553
      5 C          60.8355   92.5020    1.6983 C.ar    1  UNL1       -0.0224
      6 C          62.0484   91.7763    2.2005 C.ar    1  UNL1       -0.0030
      7 C          62.0908   91.2750    3.6136 C.ar    1  UNL1        0.0144
      8 C          60.9204   91.4993    4.5245 C.ar    1  UNL1        0.0506
      9 C          59.7075   92.2250    4.0223 C.ar    1  UNL1        0.0144
     10 C          59.6651   92.7263    2.6092 C.ar    1  UNL1       -0.0030
     11 C          60.7081   94.0061   -2.5410 C.3     1  UNL1        0.0056
     12 C          59.5017   93.3450   -1.9431 C.3     1  UNL1        0.0007
     13 C          59.5442   92.8436   -0.5300 C.3     1  UNL1        0.0044
     14 C          60.7930   93.0034    0.2852 C.3     1  UNL1        0.0223
     15 C          61.9995   93.6645   -0.3126 C.3     1  UNL1        0.0044
     16 C          61.9570   94.1658   -1.7257 C.3     1  UNL1        0.0007
     17 C          60.6657   94.5075   -3.9540 C.3     1  UNL1        0.0417
     18 O          62.8464   93.6459   -5.0731 O.co2   1  UNL1       -0.5492
     19 C          61.9429   94.7809   -4.6915 C.2     1  UNL1        0.0503
     20 O          62.3166   96.1893   -5.0475 O.co2   1  UNL1       -0.5492
     21 C          59.9083   89.6130    7.8663 C.ar    1  UNL1        0.3052
     22 N          59.7798   90.4513    9.1035 N.ar    1  UNL1       -0.1010
     23 N          59.8788   89.5418   10.2922 N.ar    1  UNL1       -0.0919
     24 C          60.0684   88.1412    9.7896 C.ar    1  UNL1        0.3126
     25 O          60.0867   88.1852    8.2903 O.2     1  UNL1       -0.4006
     26 N          60.2143   86.9124   10.6373 N.pl3   1  UNL1       -0.2664
     27 H          59.5732   86.7364   11.3635 H       1  UNL1        0.1566
     28 C          61.3369   85.9517   10.3788 C.ar    1  UNL1        0.0541
     29 C          61.9899   85.2357   11.5237 C.ar    1  UNL1        0.0172
     30 C          63.1125   84.2749   11.2651 C.ar    1  UNL1        0.0332
     31 C          63.5821   84.0303    9.8617 C.ar    1  UNL1        0.1675
     32 F          64.7046   83.0696    9.6031 F       1  UNL1       -0.2018
     33 C          62.9290   84.7463    8.7168 C.ar    1  UNL1        0.1686
     34 F          63.3985   84.5018    7.3133 F       1  UNL1       -0.2018
     35 C          61.8064   85.7071    8.9753 C.ar    1  UNL1        0.0467
@<TRIPOS>UNITY_ATOM_ATTR
18 1
charge -1
@<TRIPOS>BOND
     1    18    19   ar
     2    19    20   ar
     3    19    17    1
     4    11    17    1
     5    11    12    1
     6    12    13    1
     7    13    14    1
     8    14     5    1
     9     5     6   ar
    10     6     7   ar
    11     7     8   ar
    12     8     1    1
    13     1     2   am
    14     2     3    2
    15     2    21    1
    16    21    22   ar
    17    22    23   ar
    18    23    24   ar
    19    24    26    1
    20    26    28    1
    21    28    29   ar
    22    29    30   ar
    23    30    31   ar
    24    31    32    1
    25    31    33   ar
    26    33    34    1
    27    33    35   ar
    28    24    25   ar
    29     8     9   ar
    30     9    10   ar
    31    14    15    1
    32    15    16    1
    33    16    11    1
    34    10     5   ar
    35    25    21   ar
    36    35    28   ar
    37     1     4    1
    38    26    27    1
