@<TRIPOS>MOLECULE
*****
 24 26 0 0 0
SMALL
GASTEIGER

@<TRIPOS>ATOM
      1 C          62.0376   85.3935   11.1681 C.ar    1  UNL1        0.1345
      2 C          62.3975   85.2521    9.7188 C.ar    1  UNL1        0.0244
      3 C          61.8324   86.2067    8.7092 C.ar    1  UNL1        0.0115
      4 C          60.9074   87.3026    9.1488 C.ar    1  UNL1        0.0611
      5 C          60.5476   87.4440   10.5981 C.ar    1  UNL1        0.1072
      6 N          61.1127   86.4894   11.6077 N.ar    1  UNL1       -0.2386
      7 N          62.6878   82.9753   11.8607 N.am    1  UNL1       -0.2980
      8 C          62.6028   84.4389   12.1778 C.2     1  UNL1        0.2636
      9 O          63.0828   84.9480   13.5045 O.2     1  UNL1       -0.2685
     10 H          62.3727   82.6412   10.9898 H       1  UNL1        0.1498
     11 C          64.6278   82.2474   12.3152 C.3     1  UNL1        0.0248
     12 C          63.2530   82.0207   12.8704 C.3     1  UNL1        0.1116
     13 C          61.8781   81.7939   13.4256 C.3     1  UNL1        0.1625
     14 O          62.4432   80.8394   14.4352 O.3     1  UNL1       -0.3502
     15 C          63.8181   81.0661   13.8800 C.3     1  UNL1        0.1625
     16 C          60.3423   88.2572    8.1391 C.1     1  UNL1       -0.0582
     17 C          59.7771   89.2118    7.1295 C.1     1  UNL1       -0.0596
     18 C          59.2120   90.1664    6.1198 C.ar    1  UNL1        0.0442
     19 C          57.7265   90.2853    5.9494 C.ar    1  UNL1        0.0084
     20 C          57.1614   91.2398    4.9397 C.ar    1  UNL1        0.0029
     21 C          58.0819   92.0755    4.1005 C.ar    1  UNL1        0.0297
     22 C          59.5674   91.9566    4.2708 C.ar    1  UNL1        0.1408
     23 F          60.4878   92.7923    3.4316 F       1  UNL1       -0.2042
     24 C          60.1324   91.0021    5.2805 C.ar    1  UNL1        0.0379
@<TRIPOS>BOND
     1    11    12    1
     2    12     7    1
     3     7     8   am
     4     8     9    2
     5     8     1    1
     6     1     2   ar
     7     2     3   ar
     8     3     4   ar
     9     4    16    1
    10    16    17    3
    11    17    18    1
    12    18    19   ar
    13    19    20   ar
    14    20    21   ar
    15    21    22   ar
    16    22    23    1
    17    22    24   ar
    18     4     5   ar
    19     5     6   ar
    20    12    13    1
    21    13    14    1
    22    14    15    1
    23    15    12    1
    24     6     1   ar
    25    24    18   ar
    26     7    10    1
@<TRIPOS>MOLECULE
*****
 24 26 0 0 0
SMALL
GASTEIGER

@<TRIPOS>ATOM
      1 C          62.0052   85.5710   11.1243 C.ar    1  UNL1        0.1345
      2 C          62.3317   85.3875    9.6719 C.ar    1  UNL1        0.0244
      3 C          61.7732   86.3352    8.6521 C.ar    1  UNL1        0.0115
      4 C          60.8880   87.4662    9.0848 C.ar    1  UNL1        0.0611
      5 C          60.5614   87.6496   10.5373 C.ar    1  UNL1        0.1072
      6 N          61.1200   86.7020   11.5570 N.ar    1  UNL1       -0.2386
      7 N          63.0386   85.1419   13.4691 N.am    1  UNL1       -0.2980
      8 C          62.5638   84.6233   12.1442 C.2     1  UNL1        0.2636
      9 O          62.6475   83.1571   11.8390 O.2     1  UNL1       -0.2685
     10 H          62.9837   86.1042   13.6694 H       1  UNL1        0.1498
     11 C          64.9864   84.5021   14.0141 C.3     1  UNL1        0.0248
     12 C          63.5972   84.1942   14.4889 C.3     1  UNL1        0.1116
     13 C          62.2081   83.8863   14.9638 C.3     1  UNL1        0.1625
     14 O          62.7667   82.9387   15.9835 O.3     1  UNL1       -0.3502
     15 C          64.1559   83.2466   15.5087 C.3     1  UNL1        0.1625
     16 C          60.3294   88.4139    8.0650 C.1     1  UNL1       -0.0582
     17 C          59.7708   89.3615    7.0452 C.1     1  UNL1       -0.0596
     18 C          59.2122   90.3091    6.0254 C.ar    1  UNL1        0.0442
     19 C          60.1378   91.0802    5.1318 C.ar    1  UNL1        0.0084
     20 C          59.5792   92.0278    4.1120 C.ar    1  UNL1        0.0029
     21 C          58.0949   92.2043    3.9859 C.ar    1  UNL1        0.0297
     22 C          57.1693   91.4332    4.8795 C.ar    1  UNL1        0.1408
     23 F          55.6851   91.6098    4.7534 F       1  UNL1       -0.2042
     24 C          57.7279   90.4857    5.8993 C.ar    1  UNL1        0.0379
@<TRIPOS>BOND
     1    11    12    1
     2    12     7    1
     3     7     8   am
     4     8     9    2
     5     8     1    1
     6     1     2   ar
     7     2     3   ar
     8     3     4   ar
     9     4    16    1
    10    16    17    3
    11    17    18    1
    12    18    19   ar
    13    19    20   ar
    14    20    21   ar
    15    21    22   ar
    16    22    23    1
    17    22    24   ar
    18     4     5   ar
    19     5     6   ar
    20    12    13    1
    21    13    14    1
    22    14    15    1
    23    15    12    1
    24     6     1   ar
    25    24    18   ar
    26     7    10    1
@<TRIPOS>MOLECULE
*****
 24 26 0 0 0
SMALL
GASTEIGER

@<TRIPOS>ATOM
      1 C          64.3060   89.1931   13.9444 C.ar    1  UNL1        0.1345
      2 C          64.7802   88.1411   14.9027 C.ar    1  UNL1        0.0244
      3 C          64.4924   86.6943   14.6306 C.ar    1  UNL1        0.0115
      4 C          63.7304   86.2996   13.4003 C.ar    1  UNL1        0.0611
      5 C          63.2563   87.3517   12.4421 C.ar    1  UNL1        0.1072
      6 N          63.5441   88.7984   12.7141 N.ar    1  UNL1       -0.2386
      7 N          65.9383   91.2134   13.8798 N.am    1  UNL1       -0.2980
      8 C          64.5938   90.6400   14.2165 C.2     1  UNL1        0.2636
      9 O          63.5370   91.5133   14.8251 O.2     1  UNL1       -0.2685
     10 H          66.6319   90.6402   13.4803 H       1  UNL1        0.1498
     11 C          66.5557   92.3268   15.5766 C.3     1  UNL1        0.0248
     12 C          66.2261   92.6603   14.1518 C.3     1  UNL1        0.1116
     13 C          65.8965   92.9937   12.7270 C.3     1  UNL1        0.1625
     14 O          66.1843   94.4405   12.9991 O.3     1  UNL1       -0.3502
     15 C          66.5139   94.1070   14.4239 C.3     1  UNL1        0.1625
     16 C          63.4427   84.8528   13.1283 C.1     1  UNL1       -0.0582
     17 C          63.1549   83.4060   12.8564 C.1     1  UNL1       -0.0596
     18 C          62.8671   81.9592   12.5843 C.ar    1  UNL1        0.0442
     19 C          62.3898   81.0682   13.6926 C.ar    1  UNL1        0.0084
     20 C          62.1021   79.6214   13.4205 C.ar    1  UNL1        0.0029
     21 C          62.2916   79.0657   12.0402 C.ar    1  UNL1        0.0297
     22 C          62.7689   79.9567   10.9320 C.ar    1  UNL1        0.1408
     23 F          62.9584   79.4010    9.5517 F       1  UNL1       -0.2042
     24 C          63.0567   81.4034   11.2041 C.ar    1  UNL1        0.0379
@<TRIPOS>BOND
     1    11    12    1
     2    12     7    1
     3     7     8   am
     4     8     9    2
     5     8     1    1
     6     1     2   ar
     7     2     3   ar
     8     3     4   ar
     9     4    16    1
    10    16    17    3
    11    17    18    1
    12    18    19   ar
    13    19    20   ar
    14    20    21   ar
    15    21    22   ar
    16    22    23    1
    17    22    24   ar
    18     4     5   ar
    19     5     6   ar
    20    12    13    1
    21    13    14    1
    22    14    15    1
    23    15    12    1
    24     6     1   ar
    25    24    18   ar
    26     7    10    1
@<TRIPOS>MOLECULE
*****
 24 26 0 0 0
SMALL
GASTEIGER

@<TRIPOS>ATOM
      1 C          62.1414   85.2823   11.0914 C.ar    1  UNL1        0.1345
      2 C          61.2285   86.3796   11.5522 C.ar    1  UNL1        0.0244
      3 C          60.6661   87.3536   10.5598 C.ar    1  UNL1        0.0115
      4 C          61.0165   87.2302    9.1065 C.ar    1  UNL1        0.0611
      5 C          61.9294   86.1329    8.6457 C.ar    1  UNL1        0.1072
      6 N          62.4918   85.1589    9.6381 N.ar    1  UNL1       -0.2386
      7 N          62.4585   82.8382   11.9138 N.am    1  UNL1       -0.2980
      8 C          62.7039   84.3082   12.0838 C.2     1  UNL1        0.2636
      9 O          63.5118   84.8042   13.2463 O.2     1  UNL1       -0.2685
     10 H          61.9282   82.5127   11.1508 H       1  UNL1        0.1498
     11 C          61.6466   81.6375   13.4626 C.3     1  UNL1        0.0248
     12 C          63.0210   81.8642   12.9062 C.3     1  UNL1        0.1116
     13 C          64.3953   82.0908   12.3498 C.3     1  UNL1        0.1625
     14 O          64.9578   81.1168   13.3422 O.3     1  UNL1       -0.3502
     15 C          63.5834   80.8902   13.8986 C.3     1  UNL1        0.1625
     16 C          60.4540   88.2043    8.1140 C.1     1  UNL1       -0.0582
     17 C          59.8915   89.1783    7.1216 C.1     1  UNL1       -0.0596
     18 C          59.3290   90.1523    6.1292 C.ar    1  UNL1        0.0442
     19 C          60.2514   90.9522    5.2578 C.ar    1  UNL1        0.0084
     20 C          59.6889   91.9262    4.2655 C.ar    1  UNL1        0.0029
     21 C          58.2040   92.1003    4.1444 C.ar    1  UNL1        0.0297
     22 C          57.2816   91.3005    5.0158 C.ar    1  UNL1        0.1408
     23 F          55.7966   91.4747    4.8948 F       1  UNL1       -0.2042
     24 C          57.8441   90.3265    6.0082 C.ar    1  UNL1        0.0379
@<TRIPOS>BOND
     1    11    12    1
     2    12     7    1
     3     7     8   am
     4     8     9    2
     5     8     1    1
     6     1     2   ar
     7     2     3   ar
     8     3     4   ar
     9     4    16    1
    10    16    17    3
    11    17    18    1
    12    18    19   ar
    13    19    20   ar
    14    20    21   ar
    15    21    22   ar
    16    22    23    1
    17    22    24   ar
    18     4     5   ar
    19     5     6   ar
    20    12    13    1
    21    13    14    1
    22    14    15    1
    23    15    12    1
    24     6     1   ar
    25    24    18   ar
    26     7    10    1
@<TRIPOS>MOLECULE
*****
 24 26 0 0 0
SMALL
GASTEIGER

@<TRIPOS>ATOM
      1 C          64.2232   89.3691   13.8622 C.ar    1  UNL1        0.1345
      2 C          64.6000   88.4286   14.9683 C.ar    1  UNL1        0.0244
      3 C          64.2345   86.9768   14.8755 C.ar    1  UNL1        0.0115
      4 C          63.4922   86.4655   13.6765 C.ar    1  UNL1        0.0611
      5 C          63.1155   87.4059   12.5704 C.ar    1  UNL1        0.1072
      6 N          63.4809   88.8577   12.6632 N.ar    1  UNL1       -0.2386
      7 N          65.7663   91.3483   13.1901 N.am    1  UNL1       -0.2980
      8 C          64.5887   90.8209   13.9550 C.2     1  UNL1        0.2636
      9 O          63.7765   91.7454   14.8127 O.2     1  UNL1       -0.2685
     10 H          66.2994   90.7415   12.6272 H       1  UNL1        0.1498
     11 C          65.5112   93.0422   11.9390 C.3     1  UNL1        0.0248
     12 C          66.1318   92.8002   13.2829 C.3     1  UNL1        0.1116
     13 C          66.7524   92.5581   14.6269 C.3     1  UNL1        0.1625
     14 O          67.1178   94.0099   14.7196 O.3     1  UNL1       -0.3502
     15 C          66.4972   94.2520   13.3757 C.3     1  UNL1        0.1625
     16 C          63.1267   85.0136   13.5837 C.1     1  UNL1       -0.0582
     17 C          62.7612   83.5618   13.4909 C.1     1  UNL1       -0.0596
     18 C          62.3957   82.1099   13.3980 C.ar    1  UNL1        0.0442
     19 C          63.2828   81.1596   12.6497 C.ar    1  UNL1        0.0084
     20 C          62.9172   79.7078   12.5569 C.ar    1  UNL1        0.0029
     21 C          61.6647   79.2063   13.2125 C.ar    1  UNL1        0.0297
     22 C          60.7777   80.1567   13.9608 C.ar    1  UNL1        0.1408
     23 F          59.5252   79.6552   14.6163 F       1  UNL1       -0.2042
     24 C          61.1432   81.6085   14.0536 C.ar    1  UNL1        0.0379
@<TRIPOS>BOND
     1    11    12    1
     2    12     7    1
     3     7     8   am
     4     8     9    2
     5     8     1    1
     6     1     2   ar
     7     2     3   ar
     8     3     4   ar
     9     4    16    1
    10    16    17    3
    11    17    18    1
    12    18    19   ar
    13    19    20   ar
    14    20    21   ar
    15    21    22   ar
    16    22    23    1
    17    22    24   ar
    18     4     5   ar
    19     5     6   ar
    20    12    13    1
    21    13    14    1
    22    14    15    1
    23    15    12    1
    24     6     1   ar
    25    24    18   ar
    26     7    10    1
@<TRIPOS>MOLECULE
*****
 24 26 0 0 0
SMALL
GASTEIGER

@<TRIPOS>ATOM
      1 C          71.9945   75.0530   14.8215 C.ar    1  UNL1        0.1345
      2 C          71.8558   74.6278   13.3897 C.ar    1  UNL1        0.0244
      3 C          71.8841   75.6544   12.2965 C.ar    1  UNL1        0.0115
      4 C          72.0510   77.1062   12.6349 C.ar    1  UNL1        0.0611
      5 C          72.1897   77.5313   14.0667 C.ar    1  UNL1        0.1072
      6 N          72.1615   76.5048   15.1599 N.ar    1  UNL1       -0.2386
      7 N          71.0261   72.8612   15.8254 N.am    1  UNL1       -0.2980
      8 C          71.9663   74.0264   15.9149 C.2     1  UNL1        0.2636
      9 O          72.8783   74.1652   17.0976 O.2     1  UNL1       -0.2685
     10 H          70.4275   72.7701   15.0491 H       1  UNL1        0.1498
     11 C          71.8380   70.9180   16.0799 C.3     1  UNL1        0.0248
     12 C          70.9978   71.8346   16.9188 C.3     1  UNL1        0.1116
     13 C          70.1576   72.7511   17.7578 C.3     1  UNL1        0.1625
     14 O          70.1294   71.7246   18.8510 O.3     1  UNL1       -0.3502
     15 C          70.9696   70.8080   18.0121 C.3     1  UNL1        0.1625
     16 C          72.0792   78.1327   11.5415 C.1     1  UNL1       -0.0582
     17 C          72.1074   79.1593   10.4482 C.1     1  UNL1       -0.0596
     18 C          72.1357   80.1859    9.3548 C.ar    1  UNL1        0.0442
     19 C          72.0709   81.6454    9.6946 C.ar    1  UNL1        0.0084
     20 C          72.0991   82.6719    8.6013 C.ar    1  UNL1        0.0029
     21 C          72.1922   82.2388    7.1681 C.ar    1  UNL1        0.0297
     22 C          72.2570   80.7793    6.8284 C.ar    1  UNL1        0.1408
     23 F          72.3500   80.3463    5.3953 F       1  UNL1       -0.2042
     24 C          72.2287   79.7528    7.9217 C.ar    1  UNL1        0.0379
@<TRIPOS>BOND
     1    11    12    1
     2    12     7    1
     3     7     8   am
     4     8     9    2
     5     8     1    1
     6     1     2   ar
     7     2     3   ar
     8     3     4   ar
     9     4    16    1
    10    16    17    3
    11    17    18    1
    12    18    19   ar
    13    19    20   ar
    14    20    21   ar
    15    21    22   ar
    16    22    23    1
    17    22    24   ar
    18     4     5   ar
    19     5     6   ar
    20    12    13    1
    21    13    14    1
    22    14    15    1
    23    15    12    1
    24     6     1   ar
    25    24    18   ar
    26     7    10    1
@<TRIPOS>MOLECULE
*****
 24 26 0 0 0
SMALL
GASTEIGER

@<TRIPOS>ATOM
      1 C          63.2511   84.6804   14.2964 C.ar    1  UNL1        0.1345
      2 C          63.9925   85.3543   15.4126 C.ar    1  UNL1        0.0244
      3 C          64.4496   86.7747   15.2592 C.ar    1  UNL1        0.0115
      4 C          64.1653   87.5211   13.9896 C.ar    1  UNL1        0.0611
      5 C          63.4239   86.8472   12.8733 C.ar    1  UNL1        0.1072
      6 N          62.9668   85.4269   13.0267 N.ar    1  UNL1       -0.2386
      7 N          62.4155   82.4591   13.2393 N.am    1  UNL1       -0.2980
      8 C          62.7939   83.2600   14.4497 C.2     1  UNL1        0.2636
      9 O          62.7152   82.6406   15.8136 O.2     1  UNL1       -0.2685
     10 H          62.4672   82.8656   12.3441 H       1  UNL1        0.1498
     11 C          63.1580   80.5696   12.6240 C.3     1  UNL1        0.0248
     12 C          61.9583   81.0386   13.3926 C.3     1  UNL1        0.1116
     13 C          60.7587   81.5076   14.1613 C.3     1  UNL1        0.1625
     14 O          60.3016   80.0873   14.3146 O.3     1  UNL1       -0.3502
     15 C          61.5012   79.6182   13.5460 C.3     1  UNL1        0.1625
     16 C          64.6225   88.9416   13.8362 C.1     1  UNL1       -0.0582
     17 C          65.0796   90.3619   13.6829 C.1     1  UNL1       -0.0596
     18 C          65.5368   91.7824   13.5295 C.ar    1  UNL1        0.0442
     19 C          66.1605   92.4990   14.6903 C.ar    1  UNL1        0.0084
     20 C          66.6176   93.9193   14.5369 C.ar    1  UNL1        0.0029
     21 C          66.4510   94.6231   13.2227 C.ar    1  UNL1        0.0297
     22 C          65.8273   93.9065   12.0620 C.ar    1  UNL1        0.1408
     23 F          65.6608   94.6102   10.7478 F       1  UNL1       -0.2042
     24 C          65.3702   92.4861   12.2154 C.ar    1  UNL1        0.0379
@<TRIPOS>BOND
     1    11    12    1
     2    12     7    1
     3     7     8   am
     4     8     9    2
     5     8     1    1
     6     1     2   ar
     7     2     3   ar
     8     3     4   ar
     9     4    16    1
    10    16    17    3
    11    17    18    1
    12    18    19   ar
    13    19    20   ar
    14    20    21   ar
    15    21    22   ar
    16    22    23    1
    17    22    24   ar
    18     4     5   ar
    19     5     6   ar
    20    12    13    1
    21    13    14    1
    22    14    15    1
    23    15    12    1
    24     6     1   ar
    25    24    18   ar
    26     7    10    1
@<TRIPOS>MOLECULE
*****
 24 26 0 0 0
SMALL
GASTEIGER

@<TRIPOS>ATOM
      1 C          63.2588   84.6030   14.4202 C.ar    1  UNL1        0.1345
      2 C          64.0523   85.1908   15.5493 C.ar    1  UNL1        0.0244
      3 C          64.5553   86.6010   15.4579 C.ar    1  UNL1        0.0115
      4 C          64.2650   87.4232   14.2374 C.ar    1  UNL1        0.0611
      5 C          63.4716   86.8354   13.1083 C.ar    1  UNL1        0.1072
      6 N          62.9685   85.4253   13.1997 N.ar    1  UNL1       -0.2386
      7 N          62.4520   82.4223   13.2609 N.am    1  UNL1       -0.2980
      8 C          62.7557   83.1928   14.5115 C.2     1  UNL1        0.2636
      9 O          62.5563   82.5531   15.8536 O.2     1  UNL1       -0.2685
     10 H          62.5829   82.8422   12.3801 H       1  UNL1        0.1498
     11 C          63.1180   80.5423   12.5384 C.3     1  UNL1        0.0248
     12 C          61.9489   81.0121   13.3523 C.3     1  UNL1        0.1116
     13 C          60.7798   81.4819   14.1661 C.3     1  UNL1        0.1625
     14 O          60.2767   80.0718   14.2574 O.3     1  UNL1       -0.3502
     15 C          61.4458   79.6020   13.4436 C.3     1  UNL1        0.1625
     16 C          64.7681   88.8334   14.1460 C.1     1  UNL1       -0.0582
     17 C          65.2713   90.2435   14.0547 C.1     1  UNL1       -0.0596
     18 C          65.7744   91.6537   13.9633 C.ar    1  UNL1        0.0442
     19 C          65.4187   92.5017   12.7782 C.ar    1  UNL1        0.0084
     20 C          65.9218   93.9118   12.6869 C.ar    1  UNL1        0.0029
     21 C          66.7807   94.4740   13.7807 C.ar    1  UNL1        0.0297
     22 C          67.1364   93.6261   14.9658 C.ar    1  UNL1        0.1408
     23 F          67.9952   94.1882   16.0595 F       1  UNL1       -0.2042
     24 C          66.6333   92.2159   15.0571 C.ar    1  UNL1        0.0379
@<TRIPOS>BOND
     1    11    12    1
     2    12     7    1
     3     7     8   am
     4     8     9    2
     5     8     1    1
     6     1     2   ar
     7     2     3   ar
     8     3     4   ar
     9     4    16    1
    10    16    17    3
    11    17    18    1
    12    18    19   ar
    13    19    20   ar
    14    20    21   ar
    15    21    22   ar
    16    22    23    1
    17    22    24   ar
    18     4     5   ar
    19     5     6   ar
    20    12    13    1
    21    13    14    1
    22    14    15    1
    23    15    12    1
    24     6     1   ar
    25    24    18   ar
    26     7    10    1
@<TRIPOS>MOLECULE
*****
 24 26 0 0 0
SMALL
GASTEIGER

@<TRIPOS>ATOM
      1 C          59.3504   94.8701    0.0902 C.ar    1  UNL1        0.1345
      2 C          58.4739   93.7202   -0.3088 C.ar    1  UNL1        0.0244
      3 C          57.1825   93.9757   -1.0278 C.ar    1  UNL1        0.0115
      4 C          56.7677   95.3812   -1.3479 C.ar    1  UNL1        0.0611
      5 C          57.6442   96.5312   -0.9489 C.ar    1  UNL1        0.1072
      6 N          58.9356   96.2756   -0.2299 N.ar    1  UNL1       -0.2386
      7 N          61.3206   93.2831    0.6817 N.am    1  UNL1       -0.2980
      8 C          60.6418   94.6146    0.8093 C.2     1  UNL1        0.2636
      9 O          61.2545   95.6907    1.6558 O.2     1  UNL1       -0.2685
     10 H          60.9185   92.5768    0.1261 H       1  UNL1        0.1498
     11 C          63.3720   93.5839    0.2334 C.3     1  UNL1        0.0248
     12 C          62.6120   93.0276    1.4008 C.3     1  UNL1        0.1116
     13 C          61.8520   92.4713    2.5682 C.3     1  UNL1        0.1625
     14 O          63.1434   92.2158    3.2872 O.3     1  UNL1       -0.3502
     15 C          63.9034   92.7721    2.1198 C.3     1  UNL1        0.1625
     16 C          55.4763   95.6367   -2.0669 C.1     1  UNL1       -0.0582
     17 C          54.1849   95.8922   -2.7859 C.1     1  UNL1       -0.0596
     18 C          52.8934   96.1477   -3.5050 C.ar    1  UNL1        0.0442
     19 C          51.6364   96.3937   -2.7245 C.ar    1  UNL1        0.0084
     20 C          50.3450   96.6492   -3.4436 C.ar    1  UNL1        0.0029
     21 C          50.3108   96.6587   -4.9432 C.ar    1  UNL1        0.0297
     22 C          51.5678   96.4126   -5.7237 C.ar    1  UNL1        0.1408
     23 F          51.5335   96.4221   -7.2232 F       1  UNL1       -0.2042
     24 C          52.8592   96.1572   -5.0046 C.ar    1  UNL1        0.0379
@<TRIPOS>BOND
     1    11    12    1
     2    12     7    1
     3     7     8   am
     4     8     9    2
     5     8     1    1
     6     1     2   ar
     7     2     3   ar
     8     3     4   ar
     9     4    16    1
    10    16    17    3
    11    17    18    1
    12    18    19   ar
    13    19    20   ar
    14    20    21   ar
    15    21    22   ar
    16    22    23    1
    17    22    24   ar
    18     4     5   ar
    19     5     6   ar
    20    12    13    1
    21    13    14    1
    22    14    15    1
    23    15    12    1
    24     6     1   ar
    25    24    18   ar
    26     7    10    1
