@<TRIPOS>MOLECULE
*****
 17 18 0 0 0
SMALL
GASTEIGER

@<TRIPOS>ATOM
      1 C          66.1014   93.6578   12.0741 C.ar    1  UNL1        0.0336
      2 C          65.3385   92.3679   12.0104 C.ar    1  UNL1        0.0068
      3 C          65.2993   91.7839   13.3914 C.ar    1  UNL1        0.0040
      4 C          66.0380   92.7129   14.3087 C.ar    1  UNL1        0.0230
      5 S          66.5337   93.8710   13.4945 S.2     1  UNL1       -0.0898
      6 C          67.4269   94.2062    9.9079 C.ar    1  UNL1        0.1422
      7 C          67.7082   95.1221    8.7538 C.ar    1  UNL1        0.0576
      8 C          66.9451   96.4057    8.6118 C.ar    1  UNL1        0.1020
      9 N          65.9008   96.7733    9.6239 N.ar    1  UNL1       -0.2421
     10 C          65.6196   95.8574   10.7779 C.ar    1  UNL1        0.1024
     11 C          66.3827   94.5738   10.9199 C.ar    1  UNL1        0.0591
     12 C          68.7827   92.2646    8.8393 C.3     1  UNL1        0.2525
     13 O          68.1900   92.9226   10.0499 O.3     1  UNL1       -0.4713
     14 C          66.2447   92.5179   15.7816 C.3     1  UNL1        0.0987
     15 N          65.1296   92.8120   16.7408 N.3     1  UNL1       -0.3170
     16 H          64.9247   93.8111   16.7279 H       1  UNL1        0.1192
     17 H          65.4084   92.5341   17.6818 H       1  UNL1        0.1192
@<TRIPOS>BOND
     1    12    13    1
     2    13     6    1
     3     6     7   ar
     4     7     8   ar
     5     8     9   ar
     6     9    10   ar
     7    10    11   ar
     8    11     1    1
     9     1     2   ar
    10     2     3   ar
    11     3     4   ar
    12     4    14    1
    13    14    15    1
    14     4     5   ar
    15    11     6   ar
    16     5     1   ar
    17    15    16    1
    18    15    17    1
@<TRIPOS>MOLECULE
*****
 17 18 0 0 0
SMALL
GASTEIGER

@<TRIPOS>ATOM
      1 C          66.6920   92.8576   11.2606 C.ar    1  UNL1        0.0336
      2 C          67.7284   92.1674   10.4243 C.ar    1  UNL1        0.0068
      3 C          68.1173   93.0936    9.3103 C.ar    1  UNL1        0.0040
      4 C          67.3212   94.3563    9.4581 C.ar    1  UNL1        0.0230
      5 S          66.4403   94.2105   10.6634 S.2     1  UNL1       -0.0898
      6 C          66.7796   92.2000   13.7725 C.ar    1  UNL1        0.1422
      7 C          66.1120   91.6364   14.9918 C.ar    1  UNL1        0.0576
      8 C          64.6893   91.1669   14.9185 C.ar    1  UNL1        0.1020
      9 N          63.9341   91.2609   13.6259 N.ar    1  UNL1       -0.2421
     10 C          64.6017   91.8245   12.4066 C.ar    1  UNL1        0.1024
     11 C          66.0244   92.2940   12.4799 C.ar    1  UNL1        0.0591
     12 C          68.8846   92.7903   15.1762 C.3     1  UNL1        0.2525
     13 O          68.2023   92.6695   13.8459 O.3     1  UNL1       -0.4713
     14 C          67.3933   95.5545    8.5586 C.3     1  UNL1        0.0987
     15 N          66.2221   95.9141    7.6932 N.3     1  UNL1       -0.3170
     16 H          66.0787   95.1847    6.9948 H       1  UNL1        0.1192
     17 H          66.4051   96.8017    7.2251 H       1  UNL1        0.1192
@<TRIPOS>BOND
     1    12    13    1
     2    13     6    1
     3     6     7   ar
     4     7     8   ar
     5     8     9   ar
     6     9    10   ar
     7    10    11   ar
     8    11     1    1
     9     1     2   ar
    10     2     3   ar
    11     3     4   ar
    12     4    14    1
    13    14    15    1
    14     4     5   ar
    15    11     6   ar
    16     5     1   ar
    17    15    16    1
    18    15    17    1
@<TRIPOS>MOLECULE
*****
 17 18 0 0 0
SMALL
GASTEIGER

@<TRIPOS>ATOM
      1 C          66.6775   92.4005   12.4917 C.ar    1  UNL1        0.0336
      2 C          67.5809   92.1157   13.6547 C.ar    1  UNL1        0.0068
      3 C          66.7452   91.5454   14.7621 C.ar    1  UNL1        0.0040
      4 C          65.3252   91.4777   14.2834 C.ar    1  UNL1        0.0230
      5 S          65.2834   92.0062   12.8802 S.2     1  UNL1       -0.0898
      6 C          66.7847   94.4095   10.8477 C.ar    1  UNL1        0.1422
      7 C          67.2021   94.9870    9.5278 C.ar    1  UNL1        0.0576
      8 C          67.9297   94.1333    8.5319 C.ar    1  UNL1        0.1020
      9 N          68.2399   92.7019    8.8560 N.ar    1  UNL1       -0.2421
     10 C          67.8225   92.1244   10.1758 C.ar    1  UNL1        0.1024
     11 C          67.0949   92.9781   11.1717 C.ar    1  UNL1        0.0591
     12 C          66.0046   96.7509   11.6594 C.3     1  UNL1        0.2525
     13 O          66.0572   95.2632   11.8436 O.3     1  UNL1       -0.4713
     14 C          64.1528   90.9706   15.0698 C.3     1  UNL1        0.0987
     15 N          63.7240   91.6813   16.3192 N.3     1  UNL1       -0.3170
     16 H          64.4539   91.5958   17.0266 H       1  UNL1        0.1192
     17 H          62.8614   91.2640   16.6687 H       1  UNL1        0.1192
@<TRIPOS>BOND
     1    12    13    1
     2    13     6    1
     3     6     7   ar
     4     7     8   ar
     5     8     9   ar
     6     9    10   ar
     7    10    11   ar
     8    11     1    1
     9     1     2   ar
    10     2     3   ar
    11     3     4   ar
    12     4    14    1
    13    14    15    1
    14     4     5   ar
    15    11     6   ar
    16     5     1   ar
    17    15    16    1
    18    15    17    1
@<TRIPOS>MOLECULE
*****
 17 18 0 0 0
SMALL
GASTEIGER

@<TRIPOS>ATOM
      1 C          66.2691   93.4616   11.4317 C.ar    1  UNL1        0.0336
      2 C          67.1148   92.8730   10.3416 C.ar    1  UNL1        0.0068
      3 C          67.4511   93.9681    9.3733 C.ar    1  UNL1        0.0040
      4 C          66.8132   95.2336    9.8650 C.ar    1  UNL1        0.0230
      5 S          66.0827   94.9205   11.1371 S.2     1  UNL1       -0.0898
      6 C          64.6195   91.7090   12.4100 C.ar    1  UNL1        0.1422
      7 C          64.0587   90.9687   13.5879 C.ar    1  UNL1        0.0576
      8 C          64.5867   91.2406   14.9653 C.ar    1  UNL1        0.1020
      9 N          65.6755   92.2529   15.1649 N.ar    1  UNL1       -0.2421
     10 C          66.2363   92.9932   13.9870 C.ar    1  UNL1        0.1024
     11 C          65.7083   92.7212   12.6096 C.ar    1  UNL1        0.0591
     12 C          62.7151   90.8676   10.8559 C.3     1  UNL1        0.2525
     13 O          64.0915   91.4370   11.0326 O.3     1  UNL1       -0.4713
     14 C          66.8920   96.5764    9.2011 C.3     1  UNL1        0.0987
     15 N          67.9686   96.8530    8.1939 N.3     1  UNL1       -0.3170
     16 H          68.8781   96.8371    8.6553 H       1  UNL1        0.1192
     17 H          67.8154   97.7707    7.7759 H       1  UNL1        0.1192
@<TRIPOS>BOND
     1    12    13    1
     2    13     6    1
     3     6     7   ar
     4     7     8   ar
     5     8     9   ar
     6     9    10   ar
     7    10    11   ar
     8    11     1    1
     9     1     2   ar
    10     2     3   ar
    11     3     4   ar
    12     4    14    1
    13    14    15    1
    14     4     5   ar
    15    11     6   ar
    16     5     1   ar
    17    15    16    1
    18    15    17    1
@<TRIPOS>MOLECULE
*****
 17 18 0 0 0
SMALL
GASTEIGER

@<TRIPOS>ATOM
      1 C          62.4456   85.2171   10.8512 C.ar    1  UNL1        0.0336
      2 C          63.0439   85.0031    9.4925 C.ar    1  UNL1        0.0068
      3 C          62.2223   85.7690    8.4983 C.ar    1  UNL1        0.0040
      4 C          61.1161   86.4563    9.2426 C.ar    1  UNL1        0.0230
      5 S          61.2541   86.1152   10.6968 S.2     1  UNL1       -0.0898
      6 C          63.4582   85.5392   13.2220 C.ar    1  UNL1        0.1422
      7 C          63.9627   84.9572   14.5091 C.ar    1  UNL1        0.0576
      8 C          63.9590   83.4711   14.7127 C.ar    1  UNL1        0.1020
      9 N          63.4509   82.5670   13.6291 N.ar    1  UNL1       -0.2421
     10 C          62.9464   83.1490   12.3419 C.ar    1  UNL1        0.1024
     11 C          62.9501   84.6351   12.1384 C.ar    1  UNL1        0.0591
     12 C          64.0928   87.9211   14.0429 C.3     1  UNL1        0.2525
     13 O          63.4619   87.0254   13.0185 O.3     1  UNL1       -0.4713
     14 C          60.0577   87.3310    8.6388 C.3     1  UNL1        0.0987
     15 N          58.7771   86.7264    8.1444 N.3     1  UNL1       -0.3170
     16 H          58.9727   86.1203    7.3476 H       1  UNL1        0.1192
     17 H          58.1388   87.4688    7.8582 H       1  UNL1        0.1192
@<TRIPOS>BOND
     1    12    13    1
     2    13     6    1
     3     6     7   ar
     4     7     8   ar
     5     8     9   ar
     6     9    10   ar
     7    10    11   ar
     8    11     1    1
     9     1     2   ar
    10     2     3   ar
    11     3     4   ar
    12     4    14    1
    13    14    15    1
    14     4     5   ar
    15    11     6   ar
    16     5     1   ar
    17    15    16    1
    18    15    17    1
@<TRIPOS>MOLECULE
*****
 17 18 0 0 0
SMALL
GASTEIGER

@<TRIPOS>ATOM
      1 C          62.7030   84.9501   11.0617 C.ar    1  UNL1        0.0336
      2 C          63.4204   84.5419    9.8093 C.ar    1  UNL1        0.0068
      3 C          62.7079   85.1617    8.6439 C.ar    1  UNL1        0.0040
      4 C          61.5500   85.9531    9.1761 C.ar    1  UNL1        0.0230
      5 S          61.5470   85.8222   10.6704 S.2     1  UNL1       -0.0898
      6 C          62.9201   83.1313   12.9042 C.ar    1  UNL1        0.1422
      7 C          63.2931   82.7367   14.3025 C.ar    1  UNL1        0.0576
      8 C          63.8220   83.7663   15.2565 C.ar    1  UNL1        0.1020
      9 N          63.9779   85.1905   14.8123 N.ar    1  UNL1       -0.2421
     10 C          63.6049   85.5850   13.4140 C.ar    1  UNL1        0.1024
     11 C          63.0760   84.5554   12.4600 C.ar    1  UNL1        0.0591
     12 C          62.7583   80.6579   12.1256 C.3     1  UNL1        0.2525
     13 O          62.3912   82.1016   11.9502 O.3     1  UNL1       -0.4713
     14 C          60.5676   86.7374    8.3578 C.3     1  UNL1        0.0987
     15 N          59.4977   86.0250    7.5847 N.3     1  UNL1       -0.3170
     16 H          59.9263   85.4658    6.8471 H       1  UNL1        0.1192
     17 H          58.8658   86.7094    7.1689 H       1  UNL1        0.1192
@<TRIPOS>BOND
     1    12    13    1
     2    13     6    1
     3     6     7   ar
     4     7     8   ar
     5     8     9   ar
     6     9    10   ar
     7    10    11   ar
     8    11     1    1
     9     1     2   ar
    10     2     3   ar
    11     3     4   ar
    12     4    14    1
    13    14    15    1
    14     4     5   ar
    15    11     6   ar
    16     5     1   ar
    17    15    16    1
    18    15    17    1
@<TRIPOS>MOLECULE
*****
 17 18 0 0 0
SMALL
GASTEIGER

@<TRIPOS>ATOM
      1 C          62.6456   85.0184   11.2296 C.ar    1  UNL1        0.0336
      2 C          63.4608   84.0207   10.4615 C.ar    1  UNL1        0.0068
      3 C          63.9345   82.9709   11.4225 C.ar    1  UNL1        0.0040
      4 C          63.4121   83.3199   12.7847 C.ar    1  UNL1        0.0230
      5 S          62.6155   84.5853   12.6654 S.2     1  UNL1       -0.0898
      6 C          62.2677   87.5888   11.2401 C.ar    1  UNL1        0.1422
      7 C          61.5999   88.8059   10.6722 C.ar    1  UNL1        0.0576
      8 C          60.6421   88.6698    9.5258 C.ar    1  UNL1        0.1020
      9 N          60.3521   87.3165    8.9474 N.ar    1  UNL1       -0.2421
     10 C          61.0200   86.0994    9.5154 C.ar    1  UNL1        0.1024
     11 C          61.9778   86.2356   10.6617 C.ar    1  UNL1        0.0591
     12 C          63.5725   89.0846   12.9164 C.3     1  UNL1        0.2525
     13 O          63.2255   87.7250   12.3864 O.3     1  UNL1       -0.4713
     14 C          63.6453   82.5403   14.0448 C.3     1  UNL1        0.0987
     15 N          62.6669   82.6357   15.1777 N.3     1  UNL1       -0.3170
     16 H          62.6782   83.5821   15.5579 H       1  UNL1        0.1192
     17 H          62.9266   81.9727   15.9080 H       1  UNL1        0.1192
@<TRIPOS>BOND
     1    12    13    1
     2    13     6    1
     3     6     7   ar
     4     7     8   ar
     5     8     9   ar
     6     9    10   ar
     7    10    11   ar
     8    11     1    1
     9     1     2   ar
    10     2     3   ar
    11     3     4   ar
    12     4    14    1
    13    14    15    1
    14     4     5   ar
    15    11     6   ar
    16     5     1   ar
    17    15    16    1
    18    15    17    1
@<TRIPOS>MOLECULE
*****
 17 18 0 0 0
SMALL
GASTEIGER

@<TRIPOS>ATOM
      1 C          62.6213   89.6642   10.8159 C.ar    1  UNL1        0.0336
      2 C          63.2617   90.9157   10.2928 C.ar    1  UNL1        0.0068
      3 C          64.0146   91.5573   11.4203 C.ar    1  UNL1        0.0040
      4 C          63.8396   90.7023   12.6404 C.ar    1  UNL1        0.0230
      5 S          62.9784   89.5323   12.2668 S.2     1  UNL1       -0.0898
      6 C          60.3709   89.0909    9.6509 C.ar    1  UNL1        0.1422
      7 C          59.5224   88.1384    8.8617 C.ar    1  UNL1        0.0576
      8 C          60.0756   86.8069    8.4484 C.ar    1  UNL1        0.1020
      9 N          61.4773   86.4277    8.8242 N.ar    1  UNL1       -0.2421
     10 C          62.3259   87.3802    9.6134 C.ar    1  UNL1        0.1024
     11 C          61.7726   88.7117   10.0267 C.ar    1  UNL1        0.0591
     12 C          59.2917   90.6170   11.4554 C.3     1  UNL1        0.2525
     13 O          59.8177   90.4225   10.0642 O.3     1  UNL1       -0.4713
     14 C          64.4232   90.9703   13.9960 C.3     1  UNL1        0.0987
     15 N          63.5222   91.3048   15.1476 N.3     1  UNL1       -0.3170
     16 H          63.0700   92.2028   14.9758 H       1  UNL1        0.1192
     17 H          64.0722   91.3595   16.0049 H       1  UNL1        0.1192
@<TRIPOS>BOND
     1    12    13    1
     2    13     6    1
     3     6     7   ar
     4     7     8   ar
     5     8     9   ar
     6     9    10   ar
     7    10    11   ar
     8    11     1    1
     9     1     2   ar
    10     2     3   ar
    11     3     4   ar
    12     4    14    1
    13    14    15    1
    14     4     5   ar
    15    11     6   ar
    16     5     1   ar
    17    15    16    1
    18    15    17    1
@<TRIPOS>MOLECULE
*****
 17 18 0 0 0
SMALL
GASTEIGER

@<TRIPOS>ATOM
      1 C          62.1897   85.7799   10.5408 C.ar    1  UNL1        0.0336
      2 C          62.2650   87.1463   11.1550 C.ar    1  UNL1        0.0068
      3 C          61.3035   88.0364   10.4248 C.ar    1  UNL1        0.0040
      4 C          60.6339   87.2200    9.3592 C.ar    1  UNL1        0.0230
      5 S          61.1817   85.8255    9.4310 S.2     1  UNL1       -0.0898
      6 C          63.0277   84.1787   12.4073 C.ar    1  UNL1        0.1422
      7 C          63.8211   82.9776   12.8289 C.ar    1  UNL1        0.0576
      8 C          64.5701   82.1765   11.8054 C.ar    1  UNL1        0.1020
      9 N          64.5256   82.5766   10.3605 N.ar    1  UNL1       -0.2421
     10 C          63.7322   83.7777    9.9390 C.ar    1  UNL1        0.1024
     11 C          62.9832   84.5787   10.9624 C.ar    1  UNL1        0.0591
     12 C          62.1804   84.4867   14.8440 C.3     1  UNL1        0.2525
     13 O          62.2787   84.9797   13.4308 O.3     1  UNL1       -0.4713
     14 C          59.5985   87.7119    8.3919 C.3     1  UNL1        0.0987
     15 N          58.5491   86.7731    7.8748 N.3     1  UNL1       -0.3170
     16 H          58.9894   86.0531    7.3020 H       1  UNL1        0.1192
     17 H          57.8765   87.2924    7.3105 H       1  UNL1        0.1192
@<TRIPOS>BOND
     1    12    13    1
     2    13     6    1
     3     6     7   ar
     4     7     8   ar
     5     8     9   ar
     6     9    10   ar
     7    10    11   ar
     8    11     1    1
     9     1     2   ar
    10     2     3   ar
    11     3     4   ar
    12     4    14    1
    13    14    15    1
    14     4     5   ar
    15    11     6   ar
    16     5     1   ar
    17    15    16    1
    18    15    17    1
