@<TRIPOS>MOLECULE
*****
 21 23 0 0 0
SMALL
GASTEIGER

@<TRIPOS>ATOM
      1 C          66.2314   93.8554   12.2287 C.ar    1  UNL1        0.1388
      2 C          66.6878   93.4150   13.5881 C.ar    1  UNL1        0.0369
      3 C          66.1329   92.1610   14.1958 C.ar    1  UNL1        0.0031
      4 C          65.1216   91.3472   13.4442 C.ar    1  UNL1        0.0010
      5 C          64.5666   90.0931   14.0519 C.ar    1  UNL1        0.0001
      6 C          63.5553   89.2793   13.3003 C.ar    1  UNL1        0.0009
      7 C          63.0989   89.7196   11.9409 C.ar    1  UNL1        0.0122
      8 C          63.6538   90.9737   11.3332 C.ar    1  UNL1        0.0578
      9 CL         63.1974   91.4140    9.9739 Cl      1  UNL1       -0.0822
     10 C          64.6652   91.7875   12.0849 C.ar    1  UNL1        0.0136
     11 C          65.2201   93.0416   11.4772 C.ar    1  UNL1        0.0377
     12 C          62.0875   88.9059   11.1894 C.ar    1  UNL1        0.0230
     13 C          60.6227   89.1219   11.4297 C.ar    1  UNL1        0.0991
     14 N          59.6113   88.3081   10.6781 N.ar    1  UNL1       -0.2391
     15 C          60.0648   87.2783    9.6862 C.ar    1  UNL1        0.1353
     16 C          61.5295   87.0623    9.4458 C.ar    1  UNL1        0.1528
     17 O          61.9829   86.0324    8.4539 O.3     1  UNL1       -0.5039
     18 C          62.5409   87.8761   10.1974 C.ar    1  UNL1        0.0398
     19 H          61.3511   85.5241    7.9844 H       1  UNL1        0.2923
     20 C          66.8238   95.2673   10.1299 C.3     1  UNL1        0.2525
     21 O          66.7864   95.1094   11.6210 O.3     1  UNL1       -0.4714
@<TRIPOS>BOND
     1    20    21    1
     2    21     1    1
     3     1     2   ar
     4     2     3   ar
     5     3     4   ar
     6     4     5   ar
     7     5     6   ar
     8     6     7   ar
     9     7    12    1
    10    12    13   ar
    11    13    14   ar
    12    14    15   ar
    13    15    16   ar
    14    16    17    1
    15    16    18   ar
    16     7     8   ar
    17     8     9    1
    18     8    10   ar
    19    10    11   ar
    20    11     1   ar
    21    10     4   ar
    22    18    12   ar
    23    17    19    1
@<TRIPOS>MOLECULE
*****
 21 23 0 0 0
SMALL
GASTEIGER

@<TRIPOS>ATOM
      1 C          62.4082   85.2471   11.5476 C.ar    1  UNL1        0.1388
      2 C          61.7609   85.8372   10.3300 C.ar    1  UNL1        0.0369
      3 C          61.8017   87.3193   10.1027 C.ar    1  UNL1        0.0031
      4 C          62.4897   88.2113   11.0930 C.ar    1  UNL1        0.0010
      5 C          62.5305   89.6934   10.8657 C.ar    1  UNL1        0.0001
      6 C          63.2186   90.5854   11.8561 C.ar    1  UNL1        0.0009
      7 C          63.8660   89.9953   13.0738 C.ar    1  UNL1        0.0122
      8 C          63.8252   88.5132   13.3011 C.ar    1  UNL1        0.0578
      9 CL         64.4725   87.9230   14.5188 Cl      1  UNL1       -0.0822
     10 C          63.1370   87.6212   12.3107 C.ar    1  UNL1        0.0136
     11 C          63.0963   86.1391   12.5380 C.ar    1  UNL1        0.0377
     12 C          64.5541   90.8873   14.0642 C.ar    1  UNL1        0.0230
     13 C          63.9327   91.1377   15.4063 C.ar    1  UNL1        0.0991
     14 N          64.6208   92.0297   16.3967 N.ar    1  UNL1       -0.2391
     15 C          65.9302   92.6713   16.0450 C.ar    1  UNL1        0.1353
     16 C          66.5516   92.4209   14.7029 C.ar    1  UNL1        0.1528
     17 O          67.8611   93.0625   14.3512 O.3     1  UNL1       -0.5039
     18 C          65.8635   91.5289   13.7125 C.ar    1  UNL1        0.0398
     19 H          68.2909   93.6197   14.9699 H       1  UNL1        0.2923
     20 C          62.7954   83.1966   13.0954 C.3     1  UNL1        0.2525
     21 O          62.3674   83.7649   11.7749 O.3     1  UNL1       -0.4714
@<TRIPOS>BOND
     1    20    21    1
     2    21     1    1
     3     1     2   ar
     4     2     3   ar
     5     3     4   ar
     6     4     5   ar
     7     5     6   ar
     8     6     7   ar
     9     7    12    1
    10    12    13   ar
    11    13    14   ar
    12    14    15   ar
    13    15    16   ar
    14    16    17    1
    15    16    18   ar
    16     7     8   ar
    17     8     9    1
    18     8    10   ar
    19    10    11   ar
    20    11     1   ar
    21    10     4   ar
    22    18    12   ar
    23    17    19    1
@<TRIPOS>MOLECULE
*****
 21 23 0 0 0
SMALL
GASTEIGER

@<TRIPOS>ATOM
      1 C          63.3388   90.5630   12.4239 C.ar    1  UNL1        0.1388
      2 C          62.6182   90.9027   11.1530 C.ar    1  UNL1        0.0369
      3 C          62.0771   89.8079   10.2821 C.ar    1  UNL1        0.0031
      4 C          62.2565   88.3735   10.6820 C.ar    1  UNL1        0.0010
      5 C          61.7154   87.2787    9.8110 C.ar    1  UNL1        0.0001
      6 C          61.8948   85.8442   10.2110 C.ar    1  UNL1        0.0009
      7 C          62.6154   85.5044   11.4820 C.ar    1  UNL1        0.0122
      8 C          63.1566   86.5992   12.3530 C.ar    1  UNL1        0.0578
      9 CL         63.8772   86.2595   13.6239 Cl      1  UNL1       -0.0822
     10 C          62.9771   88.0338   11.9529 C.ar    1  UNL1        0.0136
     11 C          63.5183   89.1286   12.8239 C.ar    1  UNL1        0.0377
     12 C          62.7949   84.0700   11.8819 C.ar    1  UNL1        0.0230
     13 C          63.3952   83.0915   10.9163 C.ar    1  UNL1        0.0991
     14 N          63.5746   81.6570   11.3162 N.ar    1  UNL1       -0.2391
     15 C          63.1538   81.2009   12.6818 C.ar    1  UNL1        0.1353
     16 C          62.5536   82.1792   13.6475 C.ar    1  UNL1        0.1528
     17 O          62.1328   81.7231   15.0131 O.3     1  UNL1       -0.5039
     18 C          62.3741   83.6138   13.2475 C.ar    1  UNL1        0.0398
     19 H          62.2449   80.8270   15.2629 H       1  UNL1        0.2923
     20 C          65.3299   92.0334   13.2136 C.3     1  UNL1        0.2525
     21 O          63.8800   91.6578   13.2949 O.3     1  UNL1       -0.4714
@<TRIPOS>BOND
     1    20    21    1
     2    21     1    1
     3     1     2   ar
     4     2     3   ar
     5     3     4   ar
     6     4     5   ar
     7     5     6   ar
     8     6     7   ar
     9     7    12    1
    10    12    13   ar
    11    13    14   ar
    12    14    15   ar
    13    15    16   ar
    14    16    17    1
    15    16    18   ar
    16     7     8   ar
    17     8     9    1
    18     8    10   ar
    19    10    11   ar
    20    11     1   ar
    21    10     4   ar
    22    18    12   ar
    23    17    19    1
@<TRIPOS>MOLECULE
*****
 21 23 0 0 0
SMALL
GASTEIGER

@<TRIPOS>ATOM
      1 C          66.4868   92.4645   14.7619 C.ar    1  UNL1        0.1388
      2 C          66.8692   93.5293   13.7771 C.ar    1  UNL1        0.0369
      3 C          66.2324   93.5587   12.4193 C.ar    1  UNL1        0.0031
      4 C          65.2131   92.5235   12.0463 C.ar    1  UNL1        0.0010
      5 C          64.5762   92.5529   10.6886 C.ar    1  UNL1        0.0001
      6 C          63.5569   91.5176   10.3156 C.ar    1  UNL1        0.0009
      7 C          63.1744   90.4528   11.3005 C.ar    1  UNL1        0.0122
      8 C          63.8113   90.4233   12.6582 C.ar    1  UNL1        0.0578
      9 CL         63.4288   89.3585   13.6430 Cl      1  UNL1       -0.0822
     10 C          64.8306   91.4587   13.0312 C.ar    1  UNL1        0.0136
     11 C          65.4675   91.4292   14.3889 C.ar    1  UNL1        0.0377
     12 C          62.1551   89.4175   10.9275 C.ar    1  UNL1        0.0230
     13 C          60.7778   89.4737   11.5191 C.ar    1  UNL1        0.0991
     14 N          59.7585   88.4385   11.1461 N.ar    1  UNL1       -0.2391
     15 C          60.1164   87.3468   10.1816 C.ar    1  UNL1        0.1353
     16 C          61.4937   87.2905    9.5900 C.ar    1  UNL1        0.1528
     17 O          61.8516   86.1989    8.6255 O.3     1  UNL1       -0.5039
     18 C          62.5131   88.3259    9.9630 C.ar    1  UNL1        0.0398
     19 H          61.2149   85.5522    8.3926 H       1  UNL1        0.2923
     20 C          68.6169   92.4915   16.2490 C.3     1  UNL1        0.2525
     21 O          67.1236   92.4350   16.1197 O.3     1  UNL1       -0.4714
@<TRIPOS>BOND
     1    20    21    1
     2    21     1    1
     3     1     2   ar
     4     2     3   ar
     5     3     4   ar
     6     4     5   ar
     7     5     6   ar
     8     6     7   ar
     9     7    12    1
    10    12    13   ar
    11    13    14   ar
    12    14    15   ar
    13    15    16   ar
    14    16    17    1
    15    16    18   ar
    16     7     8   ar
    17     8     9    1
    18     8    10   ar
    19    10    11   ar
    20    11     1   ar
    21    10     4   ar
    22    18    12   ar
    23    17    19    1
@<TRIPOS>MOLECULE
*****
 21 23 0 0 0
SMALL
GASTEIGER

@<TRIPOS>ATOM
      1 C          61.7938   86.4930   10.1760 C.ar    1  UNL1        0.1388
      2 C          62.0862   85.1660   10.8110 C.ar    1  UNL1        0.0369
      3 C          62.8257   85.1050   12.1146 C.ar    1  UNL1        0.0031
      4 C          63.2728   86.3711   12.7832 C.ar    1  UNL1        0.0010
      5 C          64.0123   86.3101   14.0868 C.ar    1  UNL1        0.0001
      6 C          64.4594   87.5762   14.7554 C.ar    1  UNL1        0.0009
      7 C          64.1669   88.9034   14.1204 C.ar    1  UNL1        0.0122
      8 C          63.4274   88.9644   12.8168 C.ar    1  UNL1        0.0578
      9 CL         63.1350   90.2915   12.1817 Cl      1  UNL1       -0.0822
     10 C          62.9804   87.6982   12.1482 C.ar    1  UNL1        0.0136
     11 C          62.2409   87.7591   10.8446 C.ar    1  UNL1        0.0377
     12 C          64.6140   90.1695   14.7890 C.ar    1  UNL1        0.0230
     13 C          63.8010   90.7559   15.9050 C.ar    1  UNL1        0.0991
     14 N          64.2480   92.0220   16.5736 N.ar    1  UNL1       -0.2391
     15 C          65.5081   92.7018   16.1263 C.ar    1  UNL1        0.1353
     16 C          66.3211   92.1155   15.0104 C.ar    1  UNL1        0.1528
     17 O          67.5812   92.7954   14.5630 O.3     1  UNL1       -0.5039
     18 C          65.8740   90.8493   14.3417 C.ar    1  UNL1        0.0398
     19 H          67.8604   93.5863   14.9807 H       1  UNL1        0.2923
     20 C          59.9406   87.5416    8.6873 C.3     1  UNL1        0.2525
     21 O          61.0543   86.5540    8.8723 O.3     1  UNL1       -0.4714
@<TRIPOS>BOND
     1    20    21    1
     2    21     1    1
     3     1     2   ar
     4     2     3   ar
     5     3     4   ar
     6     4     5   ar
     7     5     6   ar
     8     6     7   ar
     9     7    12    1
    10    12    13   ar
    11    13    14   ar
    12    14    15   ar
    13    15    16   ar
    14    16    17    1
    15    16    18   ar
    16     7     8   ar
    17     8     9    1
    18     8    10   ar
    19    10    11   ar
    20    11     1   ar
    21    10     4   ar
    22    18    12   ar
    23    17    19    1
@<TRIPOS>MOLECULE
*****
 21 23 0 0 0
SMALL
GASTEIGER

@<TRIPOS>ATOM
      1 C          63.7255   82.9782   13.3447 C.ar    1  UNL1        0.1388
      2 C          64.5837   82.1987   12.3929 C.ar    1  UNL1        0.0369
      3 C          64.5754   82.5321   10.9305 C.ar    1  UNL1        0.0031
      4 C          63.7090   83.6449   10.4198 C.ar    1  UNL1        0.0010
      5 C          63.7007   83.9783    8.9573 C.ar    1  UNL1        0.0001
      6 C          62.8343   85.0912    8.4467 C.ar    1  UNL1        0.0009
      7 C          61.9761   85.8707    9.3985 C.ar    1  UNL1        0.0122
      8 C          61.9843   85.5373   10.8610 C.ar    1  UNL1        0.0578
      9 CL         61.1262   86.3168   11.8128 Cl      1  UNL1       -0.0822
     10 C          62.8508   84.4244   11.3716 C.ar    1  UNL1        0.0136
     11 C          62.8591   84.0910   12.8341 C.ar    1  UNL1        0.0377
     12 C          61.1096   86.9836    8.8879 C.ar    1  UNL1        0.0230
     13 C          60.2712   86.7788    7.6610 C.ar    1  UNL1        0.0991
     14 N          59.4048   87.8916    7.1503 N.ar    1  UNL1       -0.2391
     15 C          59.3767   89.2093    7.8665 C.ar    1  UNL1        0.1353
     16 C          60.2151   89.4142    9.0933 C.ar    1  UNL1        0.1528
     17 O          60.1870   90.7318    9.8095 O.3     1  UNL1       -0.5039
     18 C          61.0815   88.3013    9.6041 C.ar    1  UNL1        0.0398
     19 H          59.6457   91.4270    9.4905 H       1  UNL1        0.2923
     20 C          63.0146   83.5291   15.7821 C.3     1  UNL1        0.2525
     21 O          63.7338   82.6448   14.8072 O.3     1  UNL1       -0.4714
@<TRIPOS>BOND
     1    20    21    1
     2    21     1    1
     3     1     2   ar
     4     2     3   ar
     5     3     4   ar
     6     4     5   ar
     7     5     6   ar
     8     6     7   ar
     9     7    12    1
    10    12    13   ar
    11    13    14   ar
    12    14    15   ar
    13    15    16   ar
    14    16    17    1
    15    16    18   ar
    16     7     8   ar
    17     8     9    1
    18     8    10   ar
    19    10    11   ar
    20    11     1   ar
    21    10     4   ar
    22    18    12   ar
    23    17    19    1
@<TRIPOS>MOLECULE
*****
 21 23 0 0 0
SMALL
GASTEIGER

@<TRIPOS>ATOM
      1 C          63.3845   83.7701   12.5875 C.ar    1  UNL1        0.1388
      2 C          62.6732   84.0519   11.2973 C.ar    1  UNL1        0.0369
      3 C          62.3987   85.4680   10.8860 C.ar    1  UNL1        0.0031
      4 C          62.8355   86.6024   11.7647 C.ar    1  UNL1        0.0010
      5 C          62.5610   88.0185   11.3534 C.ar    1  UNL1        0.0001
      6 C          62.9979   89.1529   12.2322 C.ar    1  UNL1        0.0009
      7 C          63.7093   88.8711   13.5224 C.ar    1  UNL1        0.0122
      8 C          63.9838   87.4550   13.9338 C.ar    1  UNL1        0.0578
      9 CL         64.6951   87.1732   15.2240 Cl      1  UNL1       -0.0822
     10 C          63.5469   86.3206   13.0549 C.ar    1  UNL1        0.0136
     11 C          63.8214   84.9045   13.4663 C.ar    1  UNL1        0.0377
     12 C          64.1461   90.0055   14.4012 C.ar    1  UNL1        0.0230
     13 C          63.3760   90.3284   15.6473 C.ar    1  UNL1        0.0991
     14 N          63.8128   91.4628   16.5261 N.ar    1  UNL1       -0.2391
     15 C          65.0198   92.2743   16.1589 C.ar    1  UNL1        0.1353
     16 C          65.7898   91.9514   14.9129 C.ar    1  UNL1        0.1528
     17 O          66.9967   92.7629   14.5456 O.3     1  UNL1       -0.5039
     18 C          65.3530   90.8170   14.0340 C.ar    1  UNL1        0.0398
     19 H          67.2696   93.4715   15.0946 H       1  UNL1        0.2923
     20 C          62.8914   81.2284   12.3712 C.3     1  UNL1        0.2525
     21 O          63.6590   82.3540   12.9988 O.3     1  UNL1       -0.4714
@<TRIPOS>BOND
     1    20    21    1
     2    21     1    1
     3     1     2   ar
     4     2     3   ar
     5     3     4   ar
     6     4     5   ar
     7     5     6   ar
     8     6     7   ar
     9     7    12    1
    10    12    13   ar
    11    13    14   ar
    12    14    15   ar
    13    15    16   ar
    14    16    17    1
    15    16    18   ar
    16     7     8   ar
    17     8     9    1
    18     8    10   ar
    19    10    11   ar
    20    11     1   ar
    21    10     4   ar
    22    18    12   ar
    23    17    19    1
@<TRIPOS>MOLECULE
*****
 21 23 0 0 0
SMALL
GASTEIGER

@<TRIPOS>ATOM
      1 C          64.1780   84.5843   14.3976 C.ar    1  UNL1        0.1388
      2 C          64.8130   85.7496   15.0967 C.ar    1  UNL1        0.0369
      3 C          64.5806   87.1435   14.5936 C.ar    1  UNL1        0.0031
      4 C          63.7132   87.3721   13.3915 C.ar    1  UNL1        0.0010
      5 C          63.4808   88.7660   12.8884 C.ar    1  UNL1        0.0001
      6 C          62.6134   88.9946   11.6862 C.ar    1  UNL1        0.0009
      7 C          61.9782   87.8293   10.9871 C.ar    1  UNL1        0.0122
      8 C          62.2106   86.4354   11.4901 C.ar    1  UNL1        0.0578
      9 CL         61.5756   85.2701   10.7910 Cl      1  UNL1       -0.0822
     10 C          63.0781   86.2068   12.6924 C.ar    1  UNL1        0.0136
     11 C          63.3105   84.8130   13.1954 C.ar    1  UNL1        0.0377
     12 C          61.1108   88.0579    9.7849 C.ar    1  UNL1        0.0230
     13 C          60.8908   89.4505    9.2727 C.ar    1  UNL1        0.0991
     14 N          60.0233   89.6791    8.0705 N.ar    1  UNL1       -0.2391
     15 C          59.3759   88.5152    7.3805 C.ar    1  UNL1        0.1353
     16 C          59.5959   87.1226    7.8927 C.ar    1  UNL1        0.1528
     17 O          58.9485   85.9587    7.2027 O.3     1  UNL1       -0.5039
     18 C          60.4634   86.8940    9.0949 C.ar    1  UNL1        0.0398
     19 H          58.4066   86.1015    6.4517 H       1  UNL1        0.2923
     20 C          63.7432   82.0287   14.2261 C.3     1  UNL1        0.2525
     21 O          64.4104   83.1905   14.9006 O.3     1  UNL1       -0.4714
@<TRIPOS>BOND
     1    20    21    1
     2    21     1    1
     3     1     2   ar
     4     2     3   ar
     5     3     4   ar
     6     4     5   ar
     7     5     6   ar
     8     6     7   ar
     9     7    12    1
    10    12    13   ar
    11    13    14   ar
    12    14    15   ar
    13    15    16   ar
    14    16    17    1
    15    16    18   ar
    16     7     8   ar
    17     8     9    1
    18     8    10   ar
    19    10    11   ar
    20    11     1   ar
    21    10     4   ar
    22    18    12   ar
    23    17    19    1
@<TRIPOS>MOLECULE
*****
 21 23 0 0 0
SMALL
GASTEIGER

@<TRIPOS>ATOM
      1 C          64.2899   85.4487   14.4058 C.ar    1  UNL1        0.1388
      2 C          64.7767   86.7665   14.9315 C.ar    1  UNL1        0.0369
      3 C          64.3815   88.0402   14.2449 C.ar    1  UNL1        0.0031
      4 C          63.4993   87.9961   13.0326 C.ar    1  UNL1        0.0010
      5 C          63.1040   89.2698   12.3459 C.ar    1  UNL1        0.0001
      6 C          62.2218   89.2257   11.1336 C.ar    1  UNL1        0.0009
      7 C          61.7349   87.9079   10.6078 C.ar    1  UNL1        0.0122
      8 C          62.1302   86.6342   11.2945 C.ar    1  UNL1        0.0578
      9 CL         61.6433   85.3165   10.7688 Cl      1  UNL1       -0.0822
     10 C          63.0124   86.6784   12.5069 C.ar    1  UNL1        0.0136
     11 C          63.4077   85.4047   13.1935 C.ar    1  UNL1        0.0377
     12 C          60.8527   87.8639    9.3955 C.ar    1  UNL1        0.0230
     13 C          60.3054   86.5531    8.9134 C.ar    1  UNL1        0.0991
     14 N          59.4232   86.5090    7.7011 N.ar    1  UNL1       -0.2391
     15 C          59.0883   87.7757    6.9708 C.ar    1  UNL1        0.1353
     16 C          59.6356   89.0864    7.4528 C.ar    1  UNL1        0.1528
     17 O          59.3007   90.3531    6.7225 O.3     1  UNL1       -0.5039
     18 C          60.5178   89.1306    8.6652 C.ar    1  UNL1        0.0398
     19 H          58.7496   90.3256    5.9652 H       1  UNL1        0.2923
     20 C          63.9132   82.9146   14.8371 C.3     1  UNL1        0.2525
     21 O          64.6851   84.1750   15.0924 O.3     1  UNL1       -0.4714
@<TRIPOS>BOND
     1    20    21    1
     2    21     1    1
     3     1     2   ar
     4     2     3   ar
     5     3     4   ar
     6     4     5   ar
     7     5     6   ar
     8     6     7   ar
     9     7    12    1
    10    12    13   ar
    11    13    14   ar
    12    14    15   ar
    13    15    16   ar
    14    16    17    1
    15    16    18   ar
    16     7     8   ar
    17     8     9    1
    18     8    10   ar
    19    10    11   ar
    20    11     1   ar
    21    10     4   ar
    22    18    12   ar
    23    17    19    1
