@<TRIPOS>MOLECULE
*****
 32 35 0 0 0
SMALL
GASTEIGER

@<TRIPOS>ATOM
      1 C          59.4433   86.5246    8.3438 C.3     1  UNL1        0.0137
      2 C          60.3656   87.4255    9.1106 C.3     1  UNL1        0.0932
      3 C          60.7283   86.1686    9.8444 C.3     1  UNL1        0.0137
      4 C          59.8100   88.4941    8.2165 C.2     1  UNL1        0.2302
      5 O          58.7805   88.2986    7.1433 O.2     1  UNL1       -0.2744
      6 N          60.4647   89.7926    8.5841 N.am    1  UNL1       -0.2692
      7 C          61.4249   89.5266    9.7054 C.ar    1  UNL1        0.1363
      8 N          62.3472   90.4275   10.4721 N.ar    1  UNL1       -0.1951
      9 C          63.2081   89.8653   11.5642 C.ar    1  UNL1        0.2553
     10 N          63.1468   88.4023   11.8896 N.ar    1  UNL1       -0.1957
     11 C          62.2246   87.5015   11.1229 C.ar    1  UNL1        0.1276
     12 N          62.1633   86.0385   11.4483 N.pl3   1  UNL1       -0.3427
     13 C          61.3637   88.0636   10.0308 C.ar    1  UNL1        0.0484
     14 H          60.2942   90.6662    8.1633 H       1  UNL1        0.1563
     15 H          62.7283   85.6695   12.1651 H       1  UNL1        0.1437
     16 H          61.5580   85.4472   10.9451 H       1  UNL1        0.1437
     17 N          64.1304   90.7662   12.3310 N.ar    1  UNL1       -0.1967
     18 N          64.6169   90.5434   13.7324 N.ar    1  UNL1       -0.1670
     19 C          65.5152   91.6875   14.0986 C.ar    1  UNL1        0.0808
     20 C          65.5839   92.6174   12.9235 C.ar    1  UNL1        0.0339
     21 C          66.3152   93.9090   12.7071 C.ar    1  UNL1        0.0141
     22 C          66.1906   94.6312   11.3984 C.ar    1  UNL1        0.0578
     23 CL         66.9219   95.9229   11.1820 Cl      1  UNL1       -0.0822
     24 C          65.3347   94.0618   10.3060 C.ar    1  UNL1        0.0129
     25 C          64.6034   92.7702   10.5224 C.ar    1  UNL1        0.0202
     26 C          64.7280   92.0480   11.8312 C.ar    1  UNL1        0.0871
     27 C          66.2210   91.8697   15.4095 C.3     1  UNL1        0.0564
     28 C          67.7180   91.7985   15.4716 C.3     1  UNL1        0.1097
     29 C          68.5214   93.0519   15.6545 C.3     1  UNL1        0.3982
     30 F          69.3248   94.3053   15.8374 F       1  UNL1       -0.1700
     31 F          69.5706   92.5147   14.7269 F       1  UNL1       -0.1700
     32 F          67.4722   93.5891   16.5821 F       1  UNL1       -0.1700
@<TRIPOS>BOND
     1     1     2    1
     2     2     3    1
     3     2     4    1
     4     4     5    2
     5     4     6   am
     6     6     7    1
     7     7     8   ar
     8     8     9   ar
     9     9    17    1
    10    17    18   ar
    11    18    19   ar
    12    19    27    1
    13    27    28    1
    14    28    29    1
    15    29    30    1
    16    29    31    1
    17    29    32    1
    18    19    20   ar
    19    20    21   ar
    20    21    22   ar
    21    22    23    1
    22    22    24   ar
    23    24    25   ar
    24    25    26   ar
    25     9    10   ar
    26    10    11   ar
    27    11    12    1
    28    11    13   ar
    29    13     2    1
    30    13     7   ar
    31    26    17   ar
    32    26    20   ar
    33     6    14    1
    34    12    15    1
    35    12    16    1
@<TRIPOS>MOLECULE
*****
 32 35 0 0 0
SMALL
GASTEIGER

@<TRIPOS>ATOM
      1 C          59.4377   86.6157    9.0560 C.3     1  UNL1        0.0137
      2 C          60.4018   87.6891    9.4664 C.3     1  UNL1        0.0932
      3 C          60.8744   86.6668   10.4571 C.3     1  UNL1        0.0137
      4 C          59.7277   88.4871    8.3899 C.2     1  UNL1        0.2302
      5 O          58.6045   88.0151    7.5149 O.2     1  UNL1       -0.2744
      6 N          60.3740   89.8398    8.3421 N.am    1  UNL1       -0.2692
      7 C          61.4475   89.8780    9.3891 C.ar    1  UNL1        0.1363
      8 N          62.4116   90.9513    9.7994 N.ar    1  UNL1       -0.1951
      9 C          63.3929   90.6954   10.9046 C.ar    1  UNL1        0.2553
     10 N          63.4101   89.3662   11.5995 N.ar    1  UNL1       -0.1957
     11 C          62.4460   88.2929   11.1892 C.ar    1  UNL1        0.1276
     12 N          62.4632   86.9636   11.8840 N.pl3   1  UNL1       -0.3427
     13 C          61.4647   88.5487   10.0839 C.ar    1  UNL1        0.0484
     14 H          60.1354   90.5738    7.7309 H       1  UNL1        0.1563
     15 H          63.1073   86.7957   12.6094 H       1  UNL1        0.1437
     16 H          61.8305   86.2591   11.6147 H       1  UNL1        0.1437
     17 N          64.3570   91.7688   11.3151 N.ar    1  UNL1       -0.1967
     18 N          64.8433   92.8945   10.4511 N.ar    1  UNL1       -0.1670
     19 C          65.7910   93.7263   11.2635 C.ar    1  UNL1        0.0808
     20 C          65.8903   93.1148   12.6296 C.ar    1  UNL1        0.0339
     21 C          66.6732   93.5032   13.8487 C.ar    1  UNL1        0.0141
     22 C          66.5700   92.6819   15.0995 C.ar    1  UNL1        0.0578
     23 CL         67.3529   93.0704   16.3186 Cl      1  UNL1       -0.0822
     24 C          65.6837   91.4721   15.1314 C.ar    1  UNL1        0.0129
     25 C          64.9008   91.0836   13.9123 C.ar    1  UNL1        0.0202
     26 C          65.0041   91.9050   12.6614 C.ar    1  UNL1        0.0871
     27 C          66.5125   94.9541   10.7925 C.3     1  UNL1        0.0564
     28 C          67.6238   94.8336    9.7922 C.3     1  UNL1        0.1097
     29 C          67.9341   93.5033    9.1727 C.3     1  UNL1        0.3982
     30 F          68.2444   92.1729    8.5531 F       1  UNL1       -0.1700
     31 F          68.3363   92.9713   10.5163 F       1  UNL1       -0.1700
     32 F          67.5319   94.0352    7.8291 F       1  UNL1       -0.1700
@<TRIPOS>BOND
     1     1     2    1
     2     2     3    1
     3     2     4    1
     4     4     5    2
     5     4     6   am
     6     6     7    1
     7     7     8   ar
     8     8     9   ar
     9     9    17    1
    10    17    18   ar
    11    18    19   ar
    12    19    27    1
    13    27    28    1
    14    28    29    1
    15    29    30    1
    16    29    31    1
    17    29    32    1
    18    19    20   ar
    19    20    21   ar
    20    21    22   ar
    21    22    23    1
    22    22    24   ar
    23    24    25   ar
    24    25    26   ar
    25     9    10   ar
    26    10    11   ar
    27    11    12    1
    28    11    13   ar
    29    13     2    1
    30    13     7   ar
    31    26    17   ar
    32    26    20   ar
    33     6    14    1
    34    12    15    1
    35    12    16    1
@<TRIPOS>MOLECULE
*****
 32 35 0 0 0
SMALL
GASTEIGER

@<TRIPOS>ATOM
      1 C          62.7338   79.4412   13.4340 C.3     1  UNL1        0.0137
      2 C          62.6840   80.8864   13.0350 C.3     1  UNL1        0.0932
      3 C          62.5872   81.1283   14.5121 C.3     1  UNL1        0.0137
      4 C          62.7912   80.3424   11.6412 C.2     1  UNL1        0.2302
      5 O          62.8856   78.8933   11.2651 O.2     1  UNL1       -0.2744
      6 N          62.7875   81.5018   10.6896 N.am    1  UNL1       -0.2692
      7 C          62.6780   82.7624   11.4951 C.ar    1  UNL1        0.1363
      8 N          62.6283   84.2074   11.0960 N.ar    1  UNL1       -0.1951
      9 C          62.5146   85.2721   12.1465 C.ar    1  UNL1        0.2553
     10 N          62.4507   84.8917   13.5961 N.ar    1  UNL1       -0.1957
     11 C          62.5004   83.4467   13.9952 C.ar    1  UNL1        0.1276
     12 N          62.4364   83.0663   15.4447 N.pl3   1  UNL1       -0.3427
     13 C          62.6141   82.3820   12.9447 C.ar    1  UNL1        0.0484
     14 H          62.8466   81.4454    9.7085 H       1  UNL1        0.1563
     15 H          62.3618   83.7651   16.1342 H       1  UNL1        0.1437
     16 H          62.4691   82.1179   15.7067 H       1  UNL1        0.1437
     17 N          62.4649   86.7173   11.7474 N.ar    1  UNL1       -0.1967
     18 N          63.2084   87.8403   12.4077 N.ar    1  UNL1       -0.1670
     19 C          62.8660   89.1102   11.6864 C.ar    1  UNL1        0.0808
     20 C          61.9109   88.7719   10.5803 C.ar    1  UNL1        0.0339
     21 C          61.2349   89.6194    9.5437 C.ar    1  UNL1        0.0141
     22 C          60.3111   88.9881    8.5448 C.ar    1  UNL1        0.0578
     23 CL         59.6350   89.8357    7.5081 Cl      1  UNL1       -0.0822
     24 C          60.0631   87.5091    8.5825 C.ar    1  UNL1        0.0129
     25 C          60.7392   86.6616    9.6191 C.ar    1  UNL1        0.0202
     26 C          61.6630   87.2930   10.6180 C.ar    1  UNL1        0.0871
     27 C          63.3872   90.4781   12.0137 C.3     1  UNL1        0.0564
     28 C          63.7217   90.8337   13.4320 C.3     1  UNL1        0.1097
     29 C          65.1537   91.0036   13.8448 C.3     1  UNL1        0.3982
     30 F          66.5857   91.1736   14.2576 F       1  UNL1       -0.1700
     31 F          65.1946   92.3348   13.1547 F       1  UNL1       -0.1700
     32 F          65.1128   89.6724   14.5349 F       1  UNL1       -0.1700
@<TRIPOS>BOND
     1     1     2    1
     2     2     3    1
     3     2     4    1
     4     4     5    2
     5     4     6   am
     6     6     7    1
     7     7     8   ar
     8     8     9   ar
     9     9    17    1
    10    17    18   ar
    11    18    19   ar
    12    19    27    1
    13    27    28    1
    14    28    29    1
    15    29    30    1
    16    29    31    1
    17    29    32    1
    18    19    20   ar
    19    20    21   ar
    20    21    22   ar
    21    22    23    1
    22    22    24   ar
    23    24    25   ar
    24    25    26   ar
    25     9    10   ar
    26    10    11   ar
    27    11    12    1
    28    11    13   ar
    29    13     2    1
    30    13     7   ar
    31    26    17   ar
    32    26    20   ar
    33     6    14    1
    34    12    15    1
    35    12    16    1
@<TRIPOS>MOLECULE
*****
 32 35 0 0 0
SMALL
GASTEIGER

@<TRIPOS>ATOM
      1 C          62.5565   79.5744   12.2165 C.3     1  UNL1        0.0137
      2 C          62.7616   81.0533   12.3610 C.3     1  UNL1        0.0932
      3 C          62.4214   80.8010   13.7999 C.3     1  UNL1        0.0137
      4 C          63.0589   80.9965   10.8918 C.2     1  UNL1        0.2302
      5 O          63.0415   79.7649   10.0357 O.2     1  UNL1       -0.2744
      6 N          63.3766   82.3875   10.4291 N.am    1  UNL1       -0.2692
      7 C          63.2757   83.3040   11.6123 C.ar    1  UNL1        0.1363
      8 N          63.4808   84.7829   11.7567 N.ar    1  UNL1       -0.1951
      9 C          63.3058   85.4371   13.0950 C.ar    1  UNL1        0.2553
     10 N          62.9257   84.6125   14.2890 N.ar    1  UNL1       -0.1957
     11 C          62.7206   83.1337   14.1446 C.ar    1  UNL1        0.1276
     12 N          62.3404   82.3091   15.3386 N.pl3   1  UNL1       -0.3427
     13 C          62.8956   82.4795   12.8062 C.ar    1  UNL1        0.0484
     14 H          63.6104   82.6525    9.5102 H       1  UNL1        0.1563
     15 H          62.2256   82.7385   16.2170 H       1  UNL1        0.1437
     16 H          62.2058   81.3385   15.2438 H       1  UNL1        0.1437
     17 N          63.5109   86.9161   13.2395 N.ar    1  UNL1       -0.1967
     18 N          64.0588   87.6163   14.4476 N.ar    1  UNL1       -0.1670
     19 C          64.0907   89.0874   14.1560 C.ar    1  UNL1        0.0808
     20 C          63.5625   89.2962   12.7677 C.ar    1  UNL1        0.0339
     21 C          63.3614   90.5350   11.9461 C.ar    1  UNL1        0.0141
     22 C          62.8022   90.4319   10.5581 C.ar    1  UNL1        0.0578
     23 CL         62.6012   91.6707    9.7365 Cl      1  UNL1       -0.0822
     24 C          62.4438   89.0899    9.9916 C.ar    1  UNL1        0.0129
     25 C          62.6449   87.8511   10.8133 C.ar    1  UNL1        0.0202
     26 C          63.2042   87.9543   12.2013 C.ar    1  UNL1        0.0871
     27 C          64.5671   90.1610   15.0889 C.3     1  UNL1        0.0564
     28 C          65.4473   91.2627   14.5774 C.3     1  UNL1        0.1097
     29 C          66.4765   91.8794   15.4776 C.3     1  UNL1        0.3982
     30 F          67.5057   92.4962   16.3777 F       1  UNL1       -0.1700
     31 F          67.5677   91.2988   14.6278 F       1  UNL1       -0.1700
     32 F          65.3853   92.4600   16.3274 F       1  UNL1       -0.1700
@<TRIPOS>BOND
     1     1     2    1
     2     2     3    1
     3     2     4    1
     4     4     5    2
     5     4     6   am
     6     6     7    1
     7     7     8   ar
     8     8     9   ar
     9     9    17    1
    10    17    18   ar
    11    18    19   ar
    12    19    27    1
    13    27    28    1
    14    28    29    1
    15    29    30    1
    16    29    31    1
    17    29    32    1
    18    19    20   ar
    19    20    21   ar
    20    21    22   ar
    21    22    23    1
    22    22    24   ar
    23    24    25   ar
    24    25    26   ar
    25     9    10   ar
    26    10    11   ar
    27    11    12    1
    28    11    13   ar
    29    13     2    1
    30    13     7   ar
    31    26    17   ar
    32    26    20   ar
    33     6    14    1
    34    12    15    1
    35    12    16    1
@<TRIPOS>MOLECULE
*****
 32 35 0 0 0
SMALL
GASTEIGER

@<TRIPOS>ATOM
      1 C          62.6216   79.3978   13.0812 C.3     1  UNL1        0.0137
      2 C          62.6708   80.8746   12.8228 C.3     1  UNL1        0.0932
      3 C          62.4771   80.9814   14.3064 C.3     1  UNL1        0.0137
      4 C          62.8543   80.4590   11.3933 C.2     1  UNL1        0.2302
      5 O          62.9065   79.0488   10.8848 O.2     1  UNL1       -0.2744
      6 N          62.9764   81.7013   10.5615 N.am    1  UNL1       -0.2692
      7 C          62.8684   82.8846   11.4770 C.ar    1  UNL1        0.1363
      8 N          62.9177   84.3613   11.2185 N.ar    1  UNL1       -0.1951
      9 C          62.7780   85.3271   12.3577 C.ar    1  UNL1        0.2553
     10 N          62.5892   84.8161   13.7553 N.ar    1  UNL1       -0.1957
     11 C          62.5399   83.3394   14.0137 C.ar    1  UNL1        0.1276
     12 N          62.3511   82.8285   15.4113 N.pl3   1  UNL1       -0.3427
     13 C          62.6796   82.3737   12.8746 C.ar    1  UNL1        0.0484
     14 H          63.1049   81.7342    9.5860 H       1  UNL1        0.1563
     15 H          62.2595   83.4624   16.1590 H       1  UNL1        0.1437
     16 H          62.3188   81.8593   15.5810 H       1  UNL1        0.1437
     17 N          62.8273   86.8039   12.0993 N.ar    1  UNL1       -0.1967
     18 N          62.2366   87.5121   10.9163 N.ar    1  UNL1       -0.1670
     19 C          62.5201   88.9776   11.0643 C.ar    1  UNL1        0.0808
     20 C          63.2860   89.1751   12.3389 C.ar    1  UNL1        0.0339
     21 C          63.8350   90.4047   12.9997 C.ar    1  UNL1        0.0141
     22 C          64.5739   90.2909   14.3000 C.ar    1  UNL1        0.0578
     23 CL         65.1230   91.5205   14.9608 Cl      1  UNL1       -0.0822
     24 C          64.7638   88.9474   14.9397 C.ar    1  UNL1        0.0129
     25 C          64.2147   87.7178   14.2789 C.ar    1  UNL1        0.0202
     26 C          63.4758   87.8317   12.9785 C.ar    1  UNL1        0.0871
     27 C          62.1097   90.0562   10.1061 C.3     1  UNL1        0.0564
     28 C          60.6570   90.3788    9.9173 C.3     1  UNL1        0.1097
     29 C          59.6695   90.0516   10.9979 C.3     1  UNL1        0.3982
     30 F          58.6821   89.7244   12.0785 F       1  UNL1       -0.1700
     31 F          59.8688   91.4142   11.5925 F       1  UNL1       -0.1700
     32 F          59.4703   88.6890   10.4033 F       1  UNL1       -0.1700
@<TRIPOS>BOND
     1     1     2    1
     2     2     3    1
     3     2     4    1
     4     4     5    2
     5     4     6   am
     6     6     7    1
     7     7     8   ar
     8     8     9   ar
     9     9    17    1
    10    17    18   ar
    11    18    19   ar
    12    19    27    1
    13    27    28    1
    14    28    29    1
    15    29    30    1
    16    29    31    1
    17    29    32    1
    18    19    20   ar
    19    20    21   ar
    20    21    22   ar
    21    22    23    1
    22    22    24   ar
    23    24    25   ar
    24    25    26   ar
    25     9    10   ar
    26    10    11   ar
    27    11    12    1
    28    11    13   ar
    29    13     2    1
    30    13     7   ar
    31    26    17   ar
    32    26    20   ar
    33     6    14    1
    34    12    15    1
    35    12    16    1
@<TRIPOS>MOLECULE
*****
 32 35 0 0 0
SMALL
GASTEIGER

@<TRIPOS>ATOM
      1 C          62.3847   79.4935   12.4904 C.3     1  UNL1        0.0137
      2 C          62.5846   80.9685   12.6758 C.3     1  UNL1        0.0932
      3 C          63.1549   80.9060   11.2898 C.3     1  UNL1        0.0137
      4 C          61.9725   80.7227   14.0229 C.2     1  UNL1        0.2302
      5 O          61.5022   79.3992   14.5494 O.2     1  UNL1       -0.2744
      6 N          61.9134   82.0327   14.7512 N.am    1  UNL1       -0.2692
      7 C          62.4889   83.0882   13.8541 C.ar    1  UNL1        0.1363
      8 N          62.6887   84.5632   14.0395 N.ar    1  UNL1       -0.1951
      9 C          63.3035   85.3805   12.9423 C.ar    1  UNL1        0.2553
     10 N          63.7183   84.7228   11.6596 N.ar    1  UNL1       -0.1957
     11 C          63.5185   83.2478   11.4741 C.ar    1  UNL1        0.1276
     12 N          63.9333   82.5901   10.1914 N.pl3   1  UNL1       -0.3427
     13 C          62.9037   82.4305   12.5714 C.ar    1  UNL1        0.0484
     14 H          61.5590   82.1748   15.6587 H       1  UNL1        0.1563
     15 H          64.3368   83.1266    9.4712 H       1  UNL1        0.1437
     16 H          63.8021   81.6220   10.0697 H       1  UNL1        0.1437
     17 N          63.5033   86.8555   13.1276 N.ar    1  UNL1       -0.1967
     18 N          64.0649   87.5226   14.3482 N.ar    1  UNL1       -0.1670
     19 C          64.0854   89.0018   14.1000 C.ar    1  UNL1        0.0808
     20 C          63.5365   89.2489   12.7260 C.ar    1  UNL1        0.0339
     21 C          63.3178   90.5103   11.9444 C.ar    1  UNL1        0.0141
     22 C          62.7394   90.4453   10.5620 C.ar    1  UNL1        0.0578
     23 CL         62.5207   91.7069    9.7804 Cl      1  UNL1       -0.0822
     24 C          62.3797   89.1188    9.9610 C.ar    1  UNL1        0.0129
     25 C          62.5984   87.8574   10.7426 C.ar    1  UNL1        0.0202
     26 C          63.1768   87.9224   12.1251 C.ar    1  UNL1        0.0871
     27 C          64.5697   90.0499   15.0576 C.3     1  UNL1        0.0564
     28 C          65.5024   91.1249   14.5839 C.3     1  UNL1        0.1097
     29 C          66.2469   91.9641   15.5797 C.3     1  UNL1        0.3982
     30 F          66.9913   92.8033   16.5754 F       1  UNL1       -0.1700
     31 F          67.5440   91.5870   14.9277 F       1  UNL1       -0.1700
     32 F          64.9497   92.3412   16.2317 F       1  UNL1       -0.1700
@<TRIPOS>BOND
     1     1     2    1
     2     2     3    1
     3     2     4    1
     4     4     5    2
     5     4     6   am
     6     6     7    1
     7     7     8   ar
     8     8     9   ar
     9     9    17    1
    10    17    18   ar
    11    18    19   ar
    12    19    27    1
    13    27    28    1
    14    28    29    1
    15    29    30    1
    16    29    31    1
    17    29    32    1
    18    19    20   ar
    19    20    21   ar
    20    21    22   ar
    21    22    23    1
    22    22    24   ar
    23    24    25   ar
    24    25    26   ar
    25     9    10   ar
    26    10    11   ar
    27    11    12    1
    28    11    13   ar
    29    13     2    1
    30    13     7   ar
    31    26    17   ar
    32    26    20   ar
    33     6    14    1
    34    12    15    1
    35    12    16    1
@<TRIPOS>MOLECULE
*****
 32 35 0 0 0
SMALL
GASTEIGER

@<TRIPOS>ATOM
      1 C          63.3949   80.4422   13.2814 C.3     1  UNL1        0.0137
      2 C          63.1064   81.8351   12.8050 C.3     1  UNL1        0.0932
      3 C          63.7769   81.3742   11.5449 C.3     1  UNL1        0.0137
      4 C          62.4961   82.0048   14.1647 C.2     1  UNL1        0.2302
      5 O          62.4240   80.9571   15.2358 O.2     1  UNL1       -0.2744
      6 N          61.9706   83.4061   14.2653 N.am    1  UNL1       -0.2692
      7 C          62.2561   84.1025   12.9678 C.ar    1  UNL1        0.1363
      8 N          61.9675   85.4952   12.4915 N.ar    1  UNL1       -0.1951
      9 C          62.3810   85.9171   11.1127 C.ar    1  UNL1        0.2553
     10 N          63.0829   84.9461   10.2102 N.ar    1  UNL1       -0.1957
     11 C          63.3714   83.5533   10.6865 C.ar    1  UNL1        0.1276
     12 N          64.0734   82.5824    9.7840 N.pl3   1  UNL1       -0.3427
     13 C          62.9580   83.1315   12.0653 C.ar    1  UNL1        0.0484
     14 H          61.5178   83.7997   15.0459 H       1  UNL1        0.1563
     15 H          64.3447   82.8593    8.8790 H       1  UNL1        0.1437
     16 H          64.2628   81.6683   10.0966 H       1  UNL1        0.1437
     17 N          62.0924   87.3099   10.6363 N.ar    1  UNL1       -0.1967
     18 N          62.6772   88.5723   11.1971 N.ar    1  UNL1       -0.1670
     19 C          62.1147   89.7275   10.4230 C.ar    1  UNL1        0.0808
     20 C          61.1823   89.1789    9.3838 C.ar    1  UNL1        0.0339
     21 C          60.3440   89.8469    8.3345 C.ar    1  UNL1        0.0141
     22 C          59.4920   89.0209    7.4172 C.ar    1  UNL1        0.0578
     23 CL         58.6536   89.6889    6.3678 Cl      1  UNL1       -0.0822
     24 C          59.4782   87.5267    7.5490 C.ar    1  UNL1        0.0129
     25 C          60.3165   86.8587    8.5983 C.ar    1  UNL1        0.0202
     26 C          61.1685   87.6848    9.5157 C.ar    1  UNL1        0.0871
     27 C          62.4293   91.1767   10.6484 C.3     1  UNL1        0.0564
     28 C          63.8120   91.6940   10.3829 C.3     1  UNL1        0.1097
     29 C          64.7442   91.9640   11.5266 C.3     1  UNL1        0.3982
     30 F          65.6763   92.2340   12.6703 F       1  UNL1       -0.1700
     31 F          65.8102   92.3841   10.5586 F       1  UNL1       -0.1700
     32 F          63.6781   91.5440   12.4946 F       1  UNL1       -0.1700
@<TRIPOS>BOND
     1     1     2    1
     2     2     3    1
     3     2     4    1
     4     4     5    2
     5     4     6   am
     6     6     7    1
     7     7     8   ar
     8     8     9   ar
     9     9    17    1
    10    17    18   ar
    11    18    19   ar
    12    19    27    1
    13    27    28    1
    14    28    29    1
    15    29    30    1
    16    29    31    1
    17    29    32    1
    18    19    20   ar
    19    20    21   ar
    20    21    22   ar
    21    22    23    1
    22    22    24   ar
    23    24    25   ar
    24    25    26   ar
    25     9    10   ar
    26    10    11   ar
    27    11    12    1
    28    11    13   ar
    29    13     2    1
    30    13     7   ar
    31    26    17   ar
    32    26    20   ar
    33     6    14    1
    34    12    15    1
    35    12    16    1
@<TRIPOS>MOLECULE
*****
 32 35 0 0 0
SMALL
GASTEIGER

@<TRIPOS>ATOM
      1 C          62.3857   83.0213   12.9352 C.3     1  UNL1        0.0137
      2 C          62.8987   84.4084   13.1862 C.3     1  UNL1        0.0932
      3 C          62.1688   84.7383   11.9181 C.3     1  UNL1        0.0137
      4 C          63.5213   83.7884   14.4020 C.2     1  UNL1        0.2302
      5 O          63.4170   82.3484   14.8089 O.2     1  UNL1       -0.2744
      6 N          64.2665   84.8613   15.1392 N.am    1  UNL1       -0.2692
      7 C          64.1044   86.1443   14.3792 C.ar    1  UNL1        0.1363
      8 N          64.6174   87.5313   14.6303 N.ar    1  UNL1       -0.1951
      9 C          64.2850   88.6383   13.6744 C.ar    1  UNL1        0.2553
     10 N          63.4396   88.3584   12.4673 N.ar    1  UNL1       -0.1957
     11 C          62.9266   86.9714   12.2162 C.ar    1  UNL1        0.1276
     12 N          62.0812   86.6915   11.0092 N.pl3   1  UNL1       -0.3427
     13 C          63.2590   85.8644   13.1722 C.ar    1  UNL1        0.0484
     14 H          64.7731   84.7439   15.9752 H       1  UNL1        0.1563
     15 H          61.8631   87.4181   10.3818 H       1  UNL1        0.1437
     16 H          61.7445   85.7812   10.8444 H       1  UNL1        0.1437
     17 N          64.7980   90.0254   13.9254 N.ar    1  UNL1       -0.1967
     18 N          65.2381   90.5765   15.2493 N.ar    1  UNL1       -0.1670
     19 C          65.6730   91.9965   15.0389 C.ar    1  UNL1        0.0808
     20 C          65.5018   92.3230   13.5848 C.ar    1  UNL1        0.0339
     21 C          65.7684   93.5722   12.7985 C.ar    1  UNL1        0.0141
     22 C          65.4943   93.6033   11.3242 C.ar    1  UNL1        0.0578
     23 CL         65.7610   94.8526   10.5378 Cl      1  UNL1       -0.0822
     24 C          64.9535   92.3850   10.6360 C.ar    1  UNL1        0.0129
     25 C          64.6869   91.1358   11.4223 C.ar    1  UNL1        0.0202
     26 C          64.9610   91.1048   12.8967 C.ar    1  UNL1        0.0871
     27 C          66.1887   92.9267   16.0966 C.3     1  UNL1        0.0564
     28 C          67.5920   92.7794   16.6056 C.3     1  UNL1        0.1097
     29 C          68.7515   93.1227   15.7181 C.3     1  UNL1        0.3982
     30 F          69.9110   93.4661   14.8306 F       1  UNL1       -0.1700
     31 F          68.8308   91.6938   15.2689 F       1  UNL1       -0.1700
     32 F          68.6722   94.5517   16.1673 F       1  UNL1       -0.1700
@<TRIPOS>BOND
     1     1     2    1
     2     2     3    1
     3     2     4    1
     4     4     5    2
     5     4     6   am
     6     6     7    1
     7     7     8   ar
     8     8     9   ar
     9     9    17    1
    10    17    18   ar
    11    18    19   ar
    12    19    27    1
    13    27    28    1
    14    28    29    1
    15    29    30    1
    16    29    31    1
    17    29    32    1
    18    19    20   ar
    19    20    21   ar
    20    21    22   ar
    21    22    23    1
    22    22    24   ar
    23    24    25   ar
    24    25    26   ar
    25     9    10   ar
    26    10    11   ar
    27    11    12    1
    28    11    13   ar
    29    13     2    1
    30    13     7   ar
    31    26    17   ar
    32    26    20   ar
    33     6    14    1
    34    12    15    1
    35    12    16    1
@<TRIPOS>MOLECULE
*****
 32 35 0 0 0
SMALL
GASTEIGER

@<TRIPOS>ATOM
      1 C          62.7766   79.6442   12.7764 C.3     1  UNL1        0.0137
      2 C          62.7659   81.1411   12.6796 C.3     1  UNL1        0.0932
      3 C          63.3077   80.8988   11.3020 C.3     1  UNL1        0.0137
      4 C          62.2263   81.0705   14.0774 C.2     1  UNL1        0.2302
      5 O          61.9638   79.8173   14.8589 O.2     1  UNL1       -0.2744
      6 N          61.9954   82.4730   14.5565 N.am    1  UNL1       -0.2692
      7 C          62.3922   83.4105   13.4548 C.ar    1  UNL1        0.1363
      8 N          62.3815   84.9073   13.3581 N.ar    1  UNL1       -0.1951
      9 C          62.8469   85.5809   12.1013 C.ar    1  UNL1        0.2553
     10 N          63.3231   84.7577   10.9413 N.ar    1  UNL1       -0.1957
     11 C          63.3339   83.2609   11.0380 C.ar    1  UNL1        0.1276
     12 N          63.8101   82.4378    9.8780 N.pl3   1  UNL1       -0.3427
     13 C          62.8684   82.5873   12.2948 C.ar    1  UNL1        0.0484
     14 H          61.6449   82.7327   15.4391 H       1  UNL1        0.1563
     15 H          64.1156   82.8799    9.0531 H       1  UNL1        0.1437
     16 H          63.8171   81.4553    9.9415 H       1  UNL1        0.1437
     17 N          62.8362   87.0778   12.0045 N.ar    1  UNL1       -0.1967
     18 N          62.1752   87.8870   10.9282 N.ar    1  UNL1       -0.1670
     19 C          62.4150   89.3375   11.2254 C.ar    1  UNL1        0.0808
     20 C          63.2243   89.4248   12.4854 C.ar    1  UNL1        0.0339
     21 C          63.7578   90.5956   13.2566 C.ar    1  UNL1        0.0141
     22 C          64.5516   90.3698   14.5091 C.ar    1  UNL1        0.0578
     23 CL         65.0851   91.5406   15.2803 Cl      1  UNL1       -0.0822
     24 C          64.8119   88.9732   14.9906 C.ar    1  UNL1        0.0129
     25 C          64.2784   87.8024   14.2194 C.ar    1  UNL1        0.0202
     26 C          63.4846   88.0282   12.9669 C.ar    1  UNL1        0.0871
     27 C          61.9307   90.4972   10.4065 C.3     1  UNL1        0.0564
     28 C          60.4639   90.6692   10.1440 C.3     1  UNL1        0.1097
     29 C          59.4616   90.2224   11.1665 C.3     1  UNL1        0.3982
     30 F          58.4592   89.7756   12.1890 F       1  UNL1       -0.1700
     31 F          59.4648   88.8468   10.5685 F       1  UNL1       -0.1700
     32 F          59.4583   91.5980   11.7645 F       1  UNL1       -0.1700
@<TRIPOS>BOND
     1     1     2    1
     2     2     3    1
     3     2     4    1
     4     4     5    2
     5     4     6   am
     6     6     7    1
     7     7     8   ar
     8     8     9   ar
     9     9    17    1
    10    17    18   ar
    11    18    19   ar
    12    19    27    1
    13    27    28    1
    14    28    29    1
    15    29    30    1
    16    29    31    1
    17    29    32    1
    18    19    20   ar
    19    20    21   ar
    20    21    22   ar
    21    22    23    1
    22    22    24   ar
    23    24    25   ar
    24    25    26   ar
    25     9    10   ar
    26    10    11   ar
    27    11    12    1
    28    11    13   ar
    29    13     2    1
    30    13     7   ar
    31    26    17   ar
    32    26    20   ar
    33     6    14    1
    34    12    15    1
    35    12    16    1
