@<TRIPOS>MOLECULE
*****
 38 41 0 0 0
SMALL
GASTEIGER

@<TRIPOS>ATOM
      1 C          62.4587   80.4320   12.4076 C.ar    1  UNL1        0.0067
      2 C          62.3860   81.7310   11.6611 C.ar    1  UNL1        0.0156
      3 C          62.7784   83.0095   12.3405 C.ar    1  UNL1        0.0673
      4 C          63.2434   82.9889   13.7664 C.ar    1  UNL1        0.0295
      5 C          63.3161   81.6900   14.5129 C.ar    1  UNL1        0.0315
      6 C          62.9237   80.4115   13.8335 C.ar    1  UNL1        0.1362
      7 F          62.9964   79.1125   14.5801 F       1  UNL1       -0.2045
      8 C          63.5627   84.3979   14.1702 C.ar    1  UNL1        0.0875
      9 C          63.2950   85.2892   12.9937 C.ar    1  UNL1        0.0939
     10 N          62.8103   84.4311   11.8629 N.ar    1  UNL1       -0.2745
     11 C          62.4250   84.9105   10.4948 C.ar    1  UNL1        0.2371
     12 N          61.1986   85.7550   10.3137 N.ar    1  UNL1       -0.2072
     13 C          60.8133   86.2343    8.9457 C.ar    1  UNL1        0.1332
     14 C          61.6545   85.8692    7.7586 C.ar    1  UNL1        0.1784
     15 F          61.2693   86.3485    6.3905 F       1  UNL1       -0.2009
     16 C          62.8809   85.0247    7.9396 C.ar    1  UNL1        0.1332
     17 N          63.2662   84.5453    9.3077 N.ar    1  UNL1       -0.2072
     18 C          63.4796   86.7773   12.9550 C.ar    1  UNL1        0.0982
     19 C          64.2285   87.4690   14.0553 C.ar    1  UNL1        0.0220
     20 C          64.4131   88.9571   14.0165 C.ar    1  UNL1        0.0231
     21 C          63.8487   89.7534   12.8775 C.ar    1  UNL1        0.1410
     22 C          63.0998   89.0617   11.7772 C.ar    1  UNL1        0.1187
     23 N          62.9152   87.5737   11.8160 N.ar    1  UNL1       -0.2409
     24 S          64.0334   91.2416   12.8387 S.O2    1  UNL1        0.0619
     25 O          63.9438   91.2916   14.3353 O.2     1  UNL1       -0.1529
     26 O          64.1228   91.1915   11.3423 O.2     1  UNL1       -0.1529
     27 N          64.2180   92.7296   12.7999 N.3     1  UNL1       -0.1723
     28 H          63.9705   93.0813   13.7249 H       1  UNL1        0.1491
     29 C          65.5586   93.3105   12.4603 C.3     1  UNL1        0.1701
     30 C          65.7096   94.1965   11.2595 C.3     1  UNL1        0.0278
     31 C          66.7481   93.0053   13.3216 C.3     1  UNL1        0.4118
     32 F          67.9378   92.7001   14.1828 F       1  UNL1       -0.1685
     33 F          67.2881   92.0996   12.2547 F       1  UNL1       -0.1685
     34 F          66.2081   93.9110   14.3884 F       1  UNL1       -0.1685
     35 C          62.7789   78.7168   10.4827 C.3     1  UNL1        0.0051
     36 C          62.0663   79.1536   11.7282 C.3     1  UNL1        0.0287
     37 C          64.0620   84.8381   15.5143 C.1     1  UNL1        0.1020
     38 N          64.5613   85.2785   16.8586 N.1     1  UNL1       -0.1908
@<TRIPOS>BOND
     1    35    36    1
     2    36     1    1
     3     1     2   ar
     4     2     3   ar
     5     3     4   ar
     6     4     5   ar
     7     5     6   ar
     8     6     7    1
     9     4     8   ar
    10     8    37    1
    11    37    38    3
    12     8     9   ar
    13     9    18    1
    14    18    19   ar
    15    19    20   ar
    16    20    21   ar
    17    21    24    1
    18    24    25    2
    19    24    26    2
    20    24    27    1
    21    27    29    1
    22    29    30    1
    23    29    31    1
    24    31    32    1
    25    31    33    1
    26    31    34    1
    27    21    22   ar
    28    22    23   ar
    29     9    10   ar
    30    10    11    1
    31    11    12   ar
    32    12    13   ar
    33    13    14   ar
    34    14    15    1
    35    14    16   ar
    36    16    17   ar
    37     6     1   ar
    38    23    18   ar
    39    17    11   ar
    40    10     3   ar
    41    27    28    1
@<TRIPOS>MOLECULE
*****
 38 41 0 0 0
SMALL
GASTEIGER

@<TRIPOS>ATOM
      1 C          62.3173   80.6191   13.3594 C.ar    1  UNL1        0.0067
      2 C          62.4287   81.9495   14.0433 C.ar    1  UNL1        0.0156
      3 C          62.6629   83.1911   13.2349 C.ar    1  UNL1        0.0673
      4 C          62.7857   83.1023   11.7426 C.ar    1  UNL1        0.0295
      5 C          62.6743   81.7720   11.0587 C.ar    1  UNL1        0.0315
      6 C          62.4402   80.5304   11.8671 C.ar    1  UNL1        0.1362
      7 F          62.3288   79.2000   11.1832 F       1  UNL1       -0.2045
      8 C          63.0134   84.4872   11.2131 C.ar    1  UNL1        0.0875
      9 C          63.0313   85.4318   12.3781 C.ar    1  UNL1        0.0939
     10 N          62.8147   84.6308   13.6277 N.ar    1  UNL1       -0.2745
     11 C          62.7596   85.1741   15.0248 C.ar    1  UNL1        0.2371
     12 N          64.0301   85.4584   15.7696 N.ar    1  UNL1       -0.2072
     13 C          63.9751   86.0016   17.1666 C.ar    1  UNL1        0.1332
     14 C          62.6494   86.2605   17.8189 C.ar    1  UNL1        0.1784
     15 F          62.5942   86.8038   19.2159 F       1  UNL1       -0.2009
     16 C          61.3788   85.9762   17.0741 C.ar    1  UNL1        0.1332
     17 N          61.4338   85.4330   15.6770 N.ar    1  UNL1       -0.2072
     18 C          63.2309   86.9168   12.3062 C.ar    1  UNL1        0.0982
     19 C          62.6913   87.6904   11.1398 C.ar    1  UNL1        0.0220
     20 C          62.8909   89.1753   11.0680 C.ar    1  UNL1        0.0231
     21 C          63.6300   89.8866   12.1624 C.ar    1  UNL1        0.1410
     22 C          64.1695   89.1130   13.3287 C.ar    1  UNL1        0.1187
     23 N          63.9700   87.6281   13.4006 N.ar    1  UNL1       -0.2409
     24 S          63.8295   91.3716   12.0905 S.O2    1  UNL1        0.0619
     25 O          63.7674   91.4524   13.5871 O.2     1  UNL1       -0.1529
     26 O          63.8916   91.2907   10.5940 O.2     1  UNL1       -0.1529
     27 N          64.0290   92.8565   12.0185 N.3     1  UNL1       -0.1723
     28 H          63.6899   93.2422   12.8998 H       1  UNL1        0.1491
     29 C          65.4022   93.4190   11.7995 C.3     1  UNL1        0.1701
     30 C          65.6072   94.5380   10.8219 C.3     1  UNL1        0.0278
     31 C          66.5704   92.8625   12.5581 C.3     1  UNL1        0.4118
     32 F          67.7387   92.3059   13.3167 F       1  UNL1       -0.1685
     33 F          67.0642   92.1956   11.3084 F       1  UNL1       -0.1685
     34 F          66.0766   93.5293   13.8077 F       1  UNL1       -0.1685
     35 C          60.7022   78.8019   14.2753 C.3     1  UNL1        0.0051
     36 C          62.0831   79.3775   14.1679 C.3     1  UNL1        0.0287
     37 C          63.1919   84.8616    9.7716 C.1     1  UNL1        0.1020
     38 N          63.3704   85.2361    8.3300 N.1     1  UNL1       -0.1908
@<TRIPOS>BOND
     1    35    36    1
     2    36     1    1
     3     1     2   ar
     4     2     3   ar
     5     3     4   ar
     6     4     5   ar
     7     5     6   ar
     8     6     7    1
     9     4     8   ar
    10     8    37    1
    11    37    38    3
    12     8     9   ar
    13     9    18    1
    14    18    19   ar
    15    19    20   ar
    16    20    21   ar
    17    21    24    1
    18    24    25    2
    19    24    26    2
    20    24    27    1
    21    27    29    1
    22    29    30    1
    23    29    31    1
    24    31    32    1
    25    31    33    1
    26    31    34    1
    27    21    22   ar
    28    22    23   ar
    29     9    10   ar
    30    10    11    1
    31    11    12   ar
    32    12    13   ar
    33    13    14   ar
    34    14    15    1
    35    14    16   ar
    36    16    17   ar
    37     6     1   ar
    38    23    18   ar
    39    17    11   ar
    40    10     3   ar
    41    27    28    1
@<TRIPOS>MOLECULE
*****
 38 41 0 0 0
SMALL
GASTEIGER

@<TRIPOS>ATOM
      1 C          65.1482   94.8655   10.6304 C.ar    1  UNL1        0.0067
      2 C          64.2996   93.6301   10.5708 C.ar    1  UNL1        0.0156
      3 C          64.5445   92.5048   11.5319 C.ar    1  UNL1        0.0673
      4 C          65.6380   92.6150   12.5528 C.ar    1  UNL1        0.0295
      5 C          66.4866   93.8504   12.6124 C.ar    1  UNL1        0.0315
      6 C          66.2417   94.9756   11.6513 C.ar    1  UNL1        0.1362
      7 F          67.0904   96.2111   11.7110 F       1  UNL1       -0.2045
      8 C          65.6443   91.3528   13.3632 C.ar    1  UNL1        0.0875
      9 C          64.5548   90.4625   12.8432 C.ar    1  UNL1        0.0939
     10 N          63.8750   91.1745   11.7114 N.ar    1  UNL1       -0.2745
     11 C          62.7273   90.6486   10.9014 C.ar    1  UNL1        0.2371
     12 N          61.3215   91.0358   11.2531 N.ar    1  UNL1       -0.2072
     13 C          60.1737   90.5099   10.4431 C.ar    1  UNL1        0.1332
     14 C          60.4319   89.5968    9.2813 C.ar    1  UNL1        0.1784
     15 F          59.2842   89.0709    8.4713 F       1  UNL1       -0.2009
     16 C          61.8377   89.2097    8.9296 C.ar    1  UNL1        0.1332
     17 N          62.9855   89.7355    9.7396 N.ar    1  UNL1       -0.2072
     18 C          64.2062   89.0995   13.3637 C.ar    1  UNL1        0.0982
     19 C          64.5823   88.7124   14.7632 C.ar    1  UNL1        0.0220
     20 C          64.2337   87.3495   15.2837 C.ar    1  UNL1        0.0231
     21 C          63.5090   86.3737   14.4046 C.ar    1  UNL1        0.1410
     22 C          63.1329   86.7609   13.0051 C.ar    1  UNL1        0.1187
     23 N          63.4815   88.1238   12.4847 N.ar    1  UNL1       -0.2409
     24 S          63.1604   85.0107   14.9251 S.O2    1  UNL1        0.0619
     25 O          64.2026   85.1527   15.9947 O.2     1  UNL1       -0.1529
     26 O          62.1184   84.8689   13.8556 O.2     1  UNL1       -0.1529
     27 N          62.8118   83.6478   15.4456 N.3     1  UNL1       -0.1723
     28 H          61.9130   83.7348   15.9199 H       1  UNL1        0.1491
     29 C          62.6913   82.4914   14.4979 C.3     1  UNL1        0.1701
     30 C          61.4676   81.6243   14.5246 C.3     1  UNL1        0.0278
     31 C          63.7944   82.2019   13.5237 C.3     1  UNL1        0.4118
     32 F          64.8976   81.9124   12.5494 F       1  UNL1       -0.1685
     33 F          64.8034   82.3409   14.6249 F       1  UNL1       -0.1685
     34 F          62.7854   82.0629   12.4225 F       1  UNL1       -0.1685
     35 C          65.9963   96.4385    8.7446 C.3     1  UNL1        0.0051
     36 C          64.9034   95.9907    9.6693 C.3     1  UNL1        0.0287
     37 C          66.5766   91.0364   14.4949 C.1     1  UNL1        0.1020
     38 N          67.5088   90.7199   15.6267 N.1     1  UNL1       -0.1908
@<TRIPOS>BOND
     1    35    36    1
     2    36     1    1
     3     1     2   ar
     4     2     3   ar
     5     3     4   ar
     6     4     5   ar
     7     5     6   ar
     8     6     7    1
     9     4     8   ar
    10     8    37    1
    11    37    38    3
    12     8     9   ar
    13     9    18    1
    14    18    19   ar
    15    19    20   ar
    16    20    21   ar
    17    21    24    1
    18    24    25    2
    19    24    26    2
    20    24    27    1
    21    27    29    1
    22    29    30    1
    23    29    31    1
    24    31    32    1
    25    31    33    1
    26    31    34    1
    27    21    22   ar
    28    22    23   ar
    29     9    10   ar
    30    10    11    1
    31    11    12   ar
    32    12    13   ar
    33    13    14   ar
    34    14    15    1
    35    14    16   ar
    36    16    17   ar
    37     6     1   ar
    38    23    18   ar
    39    17    11   ar
    40    10     3   ar
    41    27    28    1
@<TRIPOS>MOLECULE
*****
 38 41 0 0 0
SMALL
GASTEIGER

@<TRIPOS>ATOM
      1 C          68.9916   93.0447   15.4416 C.ar    1  UNL1        0.0067
      2 C          68.2392   93.1635   14.1495 C.ar    1  UNL1        0.0156
      3 C          66.9962   92.3537   13.9282 C.ar    1  UNL1        0.0673
      4 C          66.5055   91.4251   14.9991 C.ar    1  UNL1        0.0295
      5 C          67.2579   91.3063   16.2912 C.ar    1  UNL1        0.0315
      6 C          68.5009   92.1161   16.5125 C.ar    1  UNL1        0.1362
      7 F          69.2533   91.9972   17.8048 F       1  UNL1       -0.2045
      8 C          65.2582   90.7587   14.4989 C.ar    1  UNL1        0.0875
      9 C          64.9779   91.2755   13.1189 C.ar    1  UNL1        0.0939
     10 N          66.0521   92.2613   12.7661 N.ar    1  UNL1       -0.2745
     11 C          66.1627   93.0212   11.4776 C.ar    1  UNL1        0.2371
     12 N          65.3625   94.2735   11.2744 N.ar    1  UNL1       -0.2072
     13 C          65.4731   95.0334    9.9859 C.ar    1  UNL1        0.1332
     14 C          66.3840   94.5410    8.9007 C.ar    1  UNL1        0.1784
     15 F          66.4947   95.3010    7.6122 F       1  UNL1       -0.2009
     16 C          67.1843   93.2888    9.1039 C.ar    1  UNL1        0.1332
     17 N          67.0737   92.5288   10.3924 N.ar    1  UNL1       -0.2072
     18 C          63.8258   90.8765   12.2451 C.ar    1  UNL1        0.0982
     19 C          63.8344   91.2265   10.7866 C.ar    1  UNL1        0.0220
     20 C          62.6823   90.8275    9.9128 C.ar    1  UNL1        0.0231
     21 C          61.5216   90.0785   10.4977 C.ar    1  UNL1        0.1410
     22 C          61.5131   89.7286   11.9562 C.ar    1  UNL1        0.1187
     23 N          62.6652   90.1276   12.8299 N.ar    1  UNL1       -0.2409
     24 S          60.3695   89.6796    9.6238 S.O2    1  UNL1        0.0619
     25 O          61.1598   88.5102    9.1157 O.2     1  UNL1       -0.1529
     26 O          59.5792   90.8488   10.1320 O.2     1  UNL1       -0.1529
     27 N          59.2174   89.2806    8.7501 N.3     1  UNL1       -0.1723
     28 H          58.7417   90.1412    8.4789 H       1  UNL1        0.1491
     29 C          59.4651   88.5069    7.4891 C.3     1  UNL1        0.1701
     30 C          59.6781   89.2324    6.1937 C.3     1  UNL1        0.0278
     31 C          59.4999   87.0078    7.5236 C.3     1  UNL1        0.4118
     32 F          59.5347   85.5085    7.5581 F       1  UNL1       -0.1685
     33 F          60.8065   87.0212    6.7869 F       1  UNL1       -0.1685
     34 F          58.1934   86.9944    8.2603 F       1  UNL1       -0.1685
     35 C          70.1297   95.3095   16.0121 C.3     1  UNL1        0.0051
     36 C          70.2347   93.8545   15.6629 C.3     1  UNL1        0.0287
     37 C          64.4355   89.7522   15.2474 C.1     1  UNL1        0.1020
     38 N          63.6129   88.7457   15.9960 N.1     1  UNL1       -0.1908
@<TRIPOS>BOND
     1    35    36    1
     2    36     1    1
     3     1     2   ar
     4     2     3   ar
     5     3     4   ar
     6     4     5   ar
     7     5     6   ar
     8     6     7    1
     9     4     8   ar
    10     8    37    1
    11    37    38    3
    12     8     9   ar
    13     9    18    1
    14    18    19   ar
    15    19    20   ar
    16    20    21   ar
    17    21    24    1
    18    24    25    2
    19    24    26    2
    20    24    27    1
    21    27    29    1
    22    29    30    1
    23    29    31    1
    24    31    32    1
    25    31    33    1
    26    31    34    1
    27    21    22   ar
    28    22    23   ar
    29     9    10   ar
    30    10    11    1
    31    11    12   ar
    32    12    13   ar
    33    13    14   ar
    34    14    15    1
    35    14    16   ar
    36    16    17   ar
    37     6     1   ar
    38    23    18   ar
    39    17    11   ar
    40    10     3   ar
    41    27    28    1
@<TRIPOS>MOLECULE
*****
 38 41 0 0 0
SMALL
GASTEIGER

@<TRIPOS>ATOM
      1 C          72.6774   72.9486   17.7341 C.ar    1  UNL1        0.0067
      2 C          72.7277   74.3881   17.3158 C.ar    1  UNL1        0.0156
      3 C          72.6967   74.7476   15.8599 C.ar    1  UNL1        0.0673
      4 C          72.6153   73.6675   14.8222 C.ar    1  UNL1        0.0295
      5 C          72.5650   72.2279   15.2406 C.ar    1  UNL1        0.0315
      6 C          72.5960   71.8685   16.6965 C.ar    1  UNL1        0.1362
      7 F          72.5457   70.4288   17.1148 F       1  UNL1       -0.2045
      8 C          72.6008   74.3216   13.4725 C.ar    1  UNL1        0.0875
      9 C          72.6732   75.8060   13.6759 C.ar    1  UNL1        0.0939
     10 N          72.7324   76.0693   15.1514 N.ar    1  UNL1       -0.2745
     11 C          72.8132   77.4176   15.8039 C.ar    1  UNL1        0.2371
     12 N          72.1549   78.6024   15.1613 N.ar    1  UNL1       -0.2072
     13 C          72.2357   79.9506   15.8138 C.ar    1  UNL1        0.1332
     14 C          72.9747   80.1140   17.1088 C.ar    1  UNL1        0.1784
     15 F          73.0555   81.4622   17.7613 F       1  UNL1       -0.2009
     16 C          73.6330   78.9292   17.7513 C.ar    1  UNL1        0.1332
     17 N          73.5523   77.5809   17.0989 N.ar    1  UNL1       -0.2072
     18 C          72.6843   76.8448   12.5937 C.ar    1  UNL1        0.0982
     19 C          73.6218   76.7065   11.4310 C.ar    1  UNL1        0.0220
     20 C          73.6329   77.7452   10.3489 C.ar    1  UNL1        0.0231
     21 C          72.7065   78.9221   10.4296 C.ar    1  UNL1        0.1410
     22 C          71.7690   79.0604   11.5922 C.ar    1  UNL1        0.1187
     23 N          71.7579   78.0217   12.6743 N.ar    1  UNL1       -0.2409
     24 S          72.7177   79.9609    9.3474 S.O2    1  UNL1        0.0619
     25 O          73.5859   79.0739    8.5050 O.2     1  UNL1       -0.1529
     26 O          71.8495   80.8477   10.1898 O.2     1  UNL1       -0.1529
     27 N          72.7288   80.9996    8.2653 N.3     1  UNL1       -0.1723
     28 H          73.6904   81.3300    8.1842 H       1  UNL1        0.1491
     29 C          72.2746   80.6448    6.8804 C.3     1  UNL1        0.1701
     30 C          71.6857   79.2925    6.6076 C.3     1  UNL1        0.0278
     31 C          72.4093   81.6423    5.7684 C.3     1  UNL1        0.4118
     32 F          72.5440   82.6399    4.6563 F       1  UNL1       -0.1685
     33 F          71.5121   82.5892    6.5091 F       1  UNL1       -0.1685
     34 F          73.3065   80.6955    5.0277 F       1  UNL1       -0.1685
     35 C          71.6041   73.0425   20.0983 C.3     1  UNL1        0.0051
     36 C          72.7084   72.5891   19.1901 C.3     1  UNL1        0.0287
     37 C          72.5269   73.6153   12.1512 C.1     1  UNL1        0.1020
     38 N          72.4530   72.9090   10.8300 N.1     1  UNL1       -0.1908
@<TRIPOS>BOND
     1    35    36    1
     2    36     1    1
     3     1     2   ar
     4     2     3   ar
     5     3     4   ar
     6     4     5   ar
     7     5     6   ar
     8     6     7    1
     9     4     8   ar
    10     8    37    1
    11    37    38    3
    12     8     9   ar
    13     9    18    1
    14    18    19   ar
    15    19    20   ar
    16    20    21   ar
    17    21    24    1
    18    24    25    2
    19    24    26    2
    20    24    27    1
    21    27    29    1
    22    29    30    1
    23    29    31    1
    24    31    32    1
    25    31    33    1
    26    31    34    1
    27    21    22   ar
    28    22    23   ar
    29     9    10   ar
    30    10    11    1
    31    11    12   ar
    32    12    13   ar
    33    13    14   ar
    34    14    15    1
    35    14    16   ar
    36    16    17   ar
    37     6     1   ar
    38    23    18   ar
    39    17    11   ar
    40    10     3   ar
    41    27    28    1
