@<TRIPOS>MOLECULE
*****
 33 35 0 0 0
SMALL
GASTEIGER

@<TRIPOS>ATOM
      1 N          61.2614   86.4679   11.1631 N.am    1  UNL1       -0.2560
      2 C          60.8404   85.9956    9.8030 C.3     1  UNL1        0.1394
      3 C          60.7001   87.1983    8.9176 C.ar    1  UNL1        0.0662
      4 C          60.3531   87.6497    7.5299 C.ar    1  UNL1        0.0247
      5 C          60.4731   89.1442    7.4851 C.ar    1  UNL1        0.0614
      6 C          60.8941   89.6165    8.8451 C.ar    1  UNL1        0.0922
      7 N          61.0344   88.4138    9.7305 N.ar    1  UNL1       -0.2624
      8 C          61.3814   87.9625   11.1182 C.2     1  UNL1        0.3234
      9 O          61.7785   88.8498   12.2606 O.2     1  UNL1       -0.2490
     10 C          60.2169   90.0138    6.2900 C.1     1  UNL1       -0.0497
     11 C          59.9607   90.8834    5.0949 C.1     1  UNL1       -0.0095
     12 C          59.7046   91.7530    3.8998 C.1     1  UNL1       -0.0138
     13 C          59.4485   92.6225    2.7046 C.1     1  UNL1       -0.0788
     14 C          59.1924   93.4919    1.5095 C.3     1  UNL1        0.0676
     15 C          59.4018   94.7814    0.7724 C.3     1  UNL1        0.0165
     16 C          58.5394   93.7085    0.1765 C.3     1  UNL1        0.0423
     17 C          57.6645   93.2140   -0.9370 C.3     1  UNL1        0.1381
     18 O          57.0303   91.8576   -0.8467 O.3     1  UNL1       -0.3820
     19 H          57.7202   91.1761   -0.8675 H       1  UNL1        0.2104
     20 C          61.5176   85.5983   12.3581 C.3     1  UNL1        0.0977
     21 C          62.8785   85.0065   12.5773 C.3     1  UNL1        0.0524
     22 C          63.2587   82.8300   14.6066 C.3     1  UNL1        0.0331
     23 C          63.0686   83.9183   13.5918 C.3     1  UNL1        0.1820
     24 C          62.9902   84.9324   14.6943 C.2     1  UNL1        0.2640
     25 O          63.9009   86.1243   14.6831 O.2     1  UNL1       -0.2713
     26 N          62.0012   84.7547   15.8080 N.am    1  UNL1       -0.1956
     27 O          61.9229   85.7688   16.9105 O.3     1  UNL1       -0.2951
     28 H          61.4035   83.9724   15.8154 H       1  UNL1        0.1823
     29 H          62.5747   86.4695   16.7521 H       1  UNL1        0.2414
     30 S          63.1469   82.9041   12.4895 S.O2    1  UNL1       -0.0034
     31 C          63.2251   81.8898   11.3872 C.3     1  UNL1        0.1765
     32 O          62.0327   82.1268   13.1256 O.2     1  UNL1       -0.1726
     33 O          64.2609   83.6813   11.8535 O.2     1  UNL1       -0.1726
@<TRIPOS>BOND
     1    23    22    1
     2    23    21    1
     3    21    20    1
     4    20     1    1
     5     1     2    1
     6     2     3    1
     7     3     4   ar
     8     4     5   ar
     9     5    10    1
    10    10    11    3
    11    11    12    1
    12    12    13    3
    13    14    13    1
    14    14    15    1
    15    15    16    1
    16    16    17    1
    17    17    18    1
    18     5     6   ar
    19     6     7   ar
    20     7     8   am
    21     8     9    2
    22    23    24    1
    23    24    25    2
    24    24    26   am
    25    26    27    1
    26    23    30    1
    27    30    31    1
    28    30    32    2
    29    30    33    2
    30     8     1   am
    31     7     3   ar
    32    16    14    1
    33    18    19    1
    34    26    28    1
    35    27    29    1
@<TRIPOS>MOLECULE
*****
 33 35 0 0 0
SMALL
GASTEIGER

@<TRIPOS>ATOM
      1 N          61.4932   86.4305   11.3471 N.am    1  UNL1       -0.2560
      2 C          60.8883   85.9799   10.0505 C.3     1  UNL1        0.1394
      3 C          60.8012   87.1698    9.1413 C.ar    1  UNL1        0.0662
      4 C          60.3735   87.6266    7.7781 C.ar    1  UNL1        0.0247
      5 C          60.6603   89.0950    7.6702 C.ar    1  UNL1        0.0614
      6 C          61.2652   89.5456    8.9667 C.ar    1  UNL1        0.0922
      7 N          61.3523   88.3558    9.8760 N.ar    1  UNL1       -0.2624
      8 C          61.7800   87.8990   11.2392 C.2     1  UNL1        0.3234
      9 O          62.3877   88.7594   12.3070 O.2     1  UNL1       -0.2490
     10 C          60.3897   89.9607    6.4755 C.1     1  UNL1       -0.0497
     11 C          60.1190   90.8265    5.2809 C.1     1  UNL1       -0.0095
     12 C          59.8484   91.6923    4.0862 C.1     1  UNL1       -0.0138
     13 C          59.5777   92.5580    2.8915 C.1     1  UNL1       -0.0788
     14 C          59.3070   93.4237    1.6969 C.3     1  UNL1        0.0676
     15 C          59.5288   94.6998    0.9404 C.3     1  UNL1        0.0165
     16 C          58.6164   93.6472    0.3842 C.3     1  UNL1        0.0423
     17 C          57.6909   93.1684   -0.6948 C.3     1  UNL1        0.1381
     18 O          57.2334   91.7399   -0.7111 O.3     1  UNL1       -0.3820
     19 H          57.9921   91.1592   -0.8786 H       1  UNL1        0.2104
     20 C          61.7638   85.5648   12.5417 C.3     1  UNL1        0.0977
     21 C          63.1767   85.2506   12.9357 C.3     1  UNL1        0.0524
     22 C          63.7738   82.7879   14.5414 C.3     1  UNL1        0.0331
     23 C          63.4752   84.0193   13.7386 C.3     1  UNL1        0.1820
     24 C          63.5185   83.2077   12.4778 C.2     1  UNL1        0.2640
     25 O          62.4193   82.2330   12.1753 O.2     1  UNL1       -0.2713
     26 N          64.6610   83.3709   11.5197 N.am    1  UNL1       -0.1956
     27 O          64.7042   82.5593   10.2589 O.3     1  UNL1       -0.2951
     28 H          65.3824   84.0106   11.7182 H       1  UNL1        0.1823
     29 H          63.9245   81.9838   10.2179 H       1  UNL1        0.2414
     30 S          63.4320   84.8308   14.9993 S.O2    1  UNL1       -0.0034
     31 C          63.3888   85.6423   16.2601 C.3     1  UNL1        0.1765
     32 O          64.5191   85.7164   14.4666 O.2     1  UNL1       -0.1726
     33 O          62.3449   83.9452   15.5321 O.2     1  UNL1       -0.1726
@<TRIPOS>BOND
     1    23    22    1
     2    23    21    1
     3    21    20    1
     4    20     1    1
     5     1     2    1
     6     2     3    1
     7     3     4   ar
     8     4     5   ar
     9     5    10    1
    10    10    11    3
    11    11    12    1
    12    12    13    3
    13    14    13    1
    14    14    15    1
    15    15    16    1
    16    16    17    1
    17    17    18    1
    18     5     6   ar
    19     6     7   ar
    20     7     8   am
    21     8     9    2
    22    23    24    1
    23    24    25    2
    24    24    26   am
    25    26    27    1
    26    23    30    1
    27    30    31    1
    28    30    32    2
    29    30    33    2
    30     8     1   am
    31     7     3   ar
    32    16    14    1
    33    18    19    1
    34    26    28    1
    35    27    29    1
@<TRIPOS>MOLECULE
*****
 33 35 0 0 0
SMALL
GASTEIGER

@<TRIPOS>ATOM
      1 N          60.0769   95.8448   -1.5209 N.am    1  UNL1       -0.2560
      2 C          60.8315   96.0200   -0.2364 C.3     1  UNL1        0.1394
      3 C          60.4689   94.8835    0.6730 C.ar    1  UNL1        0.0662
      4 C          60.7111   94.2895    2.0289 C.ar    1  UNL1        0.0247
      5 C          59.8821   93.0448    2.1444 C.ar    1  UNL1        0.0614
      6 C          59.1275   92.8695    0.8599 C.ar    1  UNL1        0.0922
      7 N          59.4902   94.0060   -0.0495 N.ar    1  UNL1       -0.2624
      8 C          59.2479   94.6000   -1.4054 C.2     1  UNL1        0.3234
      9 O          58.3367   94.0465   -2.4605 O.2     1  UNL1       -0.2490
     10 C          59.8188   92.1350    3.3353 C.1     1  UNL1       -0.0497
     11 C          59.7555   91.2252    4.5262 C.1     1  UNL1       -0.0095
     12 C          59.6920   90.3153    5.7171 C.1     1  UNL1       -0.0138
     13 C          59.6287   89.4055    6.9080 C.1     1  UNL1       -0.0788
     14 C          59.5653   88.4957    8.0988 C.3     1  UNL1        0.0676
     15 C          59.2770   87.1475    8.6897 C.3     1  UNL1        0.0165
     16 C          59.7439   88.2680    9.5707 C.3     1  UNL1        0.0423
     17 C          60.1166   88.7836   10.9291 C.3     1  UNL1        0.1381
     18 O          59.7035   88.0281   12.1574 O.3     1  UNL1       -0.3820
     19 H          58.7369   88.0443   12.2372 H       1  UNL1        0.2104
     20 C          60.1402   96.7545   -2.7118 C.3     1  UNL1        0.0977
     21 C          61.3597   96.7629   -3.5853 C.3     1  UNL1        0.0524
     22 C          62.1220   94.3008   -5.1205 C.3     1  UNL1        0.0331
     23 C          61.7409   95.5319   -4.3529 C.3     1  UNL1        0.1820
     24 C          60.5240   95.6927   -5.2151 C.2     1  UNL1        0.2640
     25 O          60.4386   96.8322   -6.1868 O.2     1  UNL1       -0.2713
     26 N          59.3926   94.7140   -5.1056 N.am    1  UNL1       -0.1956
     27 O          58.1757   94.8748   -5.9679 O.3     1  UNL1       -0.2951
     28 H          59.4486   93.9661   -4.4678 H       1  UNL1        0.1823
     29 H          58.2816   95.6551   -6.5343 H       1  UNL1        0.2414
     30 S          62.9577   95.3710   -3.4907 S.O2    1  UNL1       -0.0034
     31 C          64.1746   95.2102   -2.6286 C.3     1  UNL1        0.1765
     32 O          63.4536   96.7135   -3.9402 O.2     1  UNL1       -0.1726
     33 O          62.4619   94.0287   -3.0413 O.2     1  UNL1       -0.1726
@<TRIPOS>BOND
     1    23    22    1
     2    23    21    1
     3    21    20    1
     4    20     1    1
     5     1     2    1
     6     2     3    1
     7     3     4   ar
     8     4     5   ar
     9     5    10    1
    10    10    11    3
    11    11    12    1
    12    12    13    3
    13    14    13    1
    14    14    15    1
    15    15    16    1
    16    16    17    1
    17    17    18    1
    18     5     6   ar
    19     6     7   ar
    20     7     8   am
    21     8     9    2
    22    23    24    1
    23    24    25    2
    24    24    26   am
    25    26    27    1
    26    23    30    1
    27    30    31    1
    28    30    32    2
    29    30    33    2
    30     8     1   am
    31     7     3   ar
    32    16    14    1
    33    18    19    1
    34    26    28    1
    35    27    29    1
@<TRIPOS>MOLECULE
*****
 33 35 0 0 0
SMALL
GASTEIGER

@<TRIPOS>ATOM
      1 N          64.2492   83.4617   12.3786 N.am    1  UNL1       -0.2560
      2 C          63.5217   84.7005   12.8102 C.3     1  UNL1        0.1394
      3 C          62.9325   85.3414   11.5887 C.ar    1  UNL1        0.0662
      4 C          62.1187   86.5032   11.1006 C.ar    1  UNL1        0.0247
      5 C          61.9791   86.3785    9.6124 C.ar    1  UNL1        0.0614
      6 C          62.7065   85.1397    9.1807 C.ar    1  UNL1        0.0922
      7 N          63.2957   84.4988   10.4022 N.ar    1  UNL1       -0.2624
      8 C          64.1095   83.3371   10.8902 C.2     1  UNL1        0.3234
      9 O          64.6829   82.2428   10.0395 O.2     1  UNL1       -0.2490
     10 C          61.2415   87.3262    8.7136 C.1     1  UNL1       -0.0497
     11 C          60.5039   88.2738    7.8147 C.1     1  UNL1       -0.0095
     12 C          59.7663   89.2216    6.9160 C.1     1  UNL1       -0.0138
     13 C          59.0286   90.1693    6.0173 C.1     1  UNL1       -0.0788
     14 C          58.2910   91.1170    5.1186 C.3     1  UNL1        0.0676
     15 C          57.0233   91.8191    4.7313 C.3     1  UNL1        0.0165
     16 C          58.2810   92.0564    3.9492 C.3     1  UNL1        0.0423
     17 C          59.0014   92.7357    2.8225 C.3     1  UNL1        0.1381
     18 O          59.9269   93.8817    3.1066 O.3     1  UNL1       -0.3820
     19 H          59.4165   94.6322    3.4488 H       1  UNL1        0.2104
     20 C          64.9867   82.5141   13.2773 C.3     1  UNL1        0.0977
     21 C          64.2341   81.6977   14.2860 C.3     1  UNL1        0.0524
     22 C          61.2450   81.8952   14.4464 C.3     1  UNL1        0.0331
     23 C          62.7396   81.7964   14.3661 C.3     1  UNL1        0.1820
     24 C          62.8667   82.9924   15.2626 C.2     1  UNL1        0.2640
     25 O          64.1269   83.2119   16.0460 O.2     1  UNL1       -0.2713
     26 N          61.7336   83.9687   15.3757 N.am    1  UNL1       -0.1956
     27 O          61.8606   85.1646   16.2722 O.3     1  UNL1       -0.2951
     28 H          60.9064   83.8246   14.8616 H       1  UNL1        0.1823
     29 H          62.7305   85.1560   16.7014 H       1  UNL1        0.2414
     30 S          62.6124   80.6006   13.4697 S.O2    1  UNL1       -0.0034
     31 C          62.4853   79.4046   12.5733 C.3     1  UNL1        0.1765
     32 O          63.5066   79.8188   14.3858 O.2     1  UNL1       -0.1726
     33 O          61.7182   81.3823   12.5537 O.2     1  UNL1       -0.1726
@<TRIPOS>BOND
     1    23    22    1
     2    23    21    1
     3    21    20    1
     4    20     1    1
     5     1     2    1
     6     2     3    1
     7     3     4   ar
     8     4     5   ar
     9     5    10    1
    10    10    11    3
    11    11    12    1
    12    12    13    3
    13    14    13    1
    14    14    15    1
    15    15    16    1
    16    16    17    1
    17    17    18    1
    18     5     6   ar
    19     6     7   ar
    20     7     8   am
    21     8     9    2
    22    23    24    1
    23    24    25    2
    24    24    26   am
    25    26    27    1
    26    23    30    1
    27    30    31    1
    28    30    32    2
    29    30    33    2
    30     8     1   am
    31     7     3   ar
    32    16    14    1
    33    18    19    1
    34    26    28    1
    35    27    29    1
@<TRIPOS>MOLECULE
*****
 33 35 0 0 0
SMALL
GASTEIGER

@<TRIPOS>ATOM
      1 N          60.7638   95.9390   -1.5311 N.am    1  UNL1       -0.2560
      2 C          61.5310   96.0182   -0.2445 C.3     1  UNL1        0.1394
      3 C          61.0559   94.9098    0.6476 C.ar    1  UNL1        0.0662
      4 C          61.2364   94.2738    1.9940 C.ar    1  UNL1        0.0247
      5 C          60.2871   93.1164    2.0909 C.ar    1  UNL1        0.0614
      6 C          59.5199   93.0372    0.8044 C.ar    1  UNL1        0.0922
      7 N          59.9950   94.1455   -0.0877 N.ar    1  UNL1       -0.2624
      8 C          59.8145   94.7816   -1.4341 C.2     1  UNL1        0.3234
      9 O          58.8534   94.3381   -2.4970 O.2     1  UNL1       -0.2490
     10 C          60.1322   92.1993    3.2677 C.1     1  UNL1       -0.0497
     11 C          59.9773   91.2822    4.4446 C.1     1  UNL1       -0.0095
     12 C          59.8223   90.3652    5.6215 C.1     1  UNL1       -0.0138
     13 C          59.6674   89.4480    6.7983 C.1     1  UNL1       -0.0788
     14 C          59.5124   88.5310    7.9751 C.3     1  UNL1        0.0676
     15 C          59.0090   87.2464    8.5634 C.3     1  UNL1        0.0165
     16 C          59.7475   88.2271    9.4251 C.3     1  UNL1        0.0423
     17 C          60.3096   88.6181   10.7597 C.3     1  UNL1        0.1381
     18 O          59.9553   87.8267   11.9838 O.3     1  UNL1       -0.3820
     19 H          59.0087   87.9268   12.1707 H       1  UNL1        0.2104
     20 C          60.9187   96.8560   -2.7078 C.3     1  UNL1        0.0977
     21 C          62.1135   96.7286   -3.6059 C.3     1  UNL1        0.0524
     22 C          63.0358   94.0176   -4.5000 C.3     1  UNL1        0.0331
     23 C          62.5746   95.3732   -4.0529 C.3     1  UNL1        0.1820
     24 C          63.5425   95.3248   -2.9080 C.2     1  UNL1        0.2640
     25 O          64.3417   96.5425   -2.5496 O.2     1  UNL1       -0.2713
     26 N          63.7112   94.0587   -2.1215 N.am    1  UNL1       -0.1956
     27 O          64.6791   94.0104   -0.9766 O.3     1  UNL1       -0.2951
     28 H          63.1866   93.2595   -2.3568 H       1  UNL1        0.1823
     29 H          65.1096   94.8742   -0.8805 H       1  UNL1        0.2414
     30 S          61.6068   95.4215   -5.1979 S.O2    1  UNL1       -0.0034
     31 C          60.6389   95.4696   -6.3428 C.3     1  UNL1        0.1765
     32 O          61.0344   94.1027   -4.7696 O.2     1  UNL1       -0.1726
     33 O          62.1791   96.7401   -5.6262 O.2     1  UNL1       -0.1726
@<TRIPOS>BOND
     1    23    22    1
     2    23    21    1
     3    21    20    1
     4    20     1    1
     5     1     2    1
     6     2     3    1
     7     3     4   ar
     8     4     5   ar
     9     5    10    1
    10    10    11    3
    11    11    12    1
    12    12    13    3
    13    14    13    1
    14    14    15    1
    15    15    16    1
    16    16    17    1
    17    17    18    1
    18     5     6   ar
    19     6     7   ar
    20     7     8   am
    21     8     9    2
    22    23    24    1
    23    24    25    2
    24    24    26   am
    25    26    27    1
    26    23    30    1
    27    30    31    1
    28    30    32    2
    29    30    33    2
    30     8     1   am
    31     7     3   ar
    32    16    14    1
    33    18    19    1
    34    26    28    1
    35    27    29    1
@<TRIPOS>MOLECULE
*****
 33 35 0 0 0
SMALL
GASTEIGER

@<TRIPOS>ATOM
      1 N          61.2224   95.8682   -1.4801 N.am    1  UNL1       -0.2560
      2 C          60.4218   96.1787   -0.2502 C.3     1  UNL1        0.1394
      3 C          60.4950   94.9908    0.6628 C.ar    1  UNL1        0.0662
      4 C          60.0455   94.4486    1.9871 C.ar    1  UNL1        0.0247
      5 C          60.6135   93.0687    2.1399 C.ar    1  UNL1        0.0614
      6 C          61.4141   92.7581    0.9100 C.ar    1  UNL1        0.0922
      7 N          61.3409   93.9461   -0.0030 N.ar    1  UNL1       -0.2624
      8 C          61.7904   94.4883   -1.3273 C.2     1  UNL1        0.3234
      9 O          62.6560   93.7758   -2.3239 O.2     1  UNL1       -0.2490
     10 C          60.4157   92.1591    3.3161 C.1     1  UNL1       -0.0497
     11 C          60.2179   91.2494    4.4922 C.1     1  UNL1       -0.0095
     12 C          60.0201   90.3398    5.6685 C.1     1  UNL1       -0.0138
     13 C          59.8223   89.4302    6.8448 C.1     1  UNL1       -0.0788
     14 C          59.6246   88.5207    8.0209 C.3     1  UNL1        0.0676
     15 C          59.1635   87.2102    8.5866 C.3     1  UNL1        0.0165
     16 C          59.7430   88.2557    9.4927 C.3     1  UNL1        0.0423
     17 C          60.1460   88.7065   10.8654 C.3     1  UNL1        0.1381
     18 O          59.2993   88.3490   12.0509 O.3     1  UNL1       -0.3820
     19 H          58.4398   88.7931   11.9801 H       1  UNL1        0.2104
     20 C          61.4202   96.7778   -2.6563 C.3     1  UNL1        0.0977
     21 C          60.3940   96.8245   -3.7494 C.3     1  UNL1        0.0524
     22 C          59.7275   94.3371   -5.2883 C.3     1  UNL1        0.0331
     23 C          60.0607   95.5808   -4.5188 C.3     1  UNL1        0.1820
     24 C          61.3864   95.6572   -5.2165 C.2     1  UNL1        0.2640
     25 O          61.7263   96.8558   -6.0519 O.2     1  UNL1       -0.2713
     26 N          62.3721   94.5350   -5.0788 N.am    1  UNL1       -0.1956
     27 O          63.6978   94.6114   -5.7765 O.3     1  UNL1       -0.2951
     28 H          62.1490   93.7483   -4.5306 H       1  UNL1        0.1823
     29 H          63.7562   95.4448   -6.2694 H       1  UNL1        0.2414
     30 S          58.7351   95.5044   -3.8212 S.O2    1  UNL1       -0.0034
     31 C          57.4093   95.4280   -3.1236 C.3     1  UNL1        0.1765
     32 O          58.3727   96.8559   -4.3616 O.2     1  UNL1       -0.1726
     33 O          59.0973   94.1529   -3.2808 O.2     1  UNL1       -0.1726
@<TRIPOS>BOND
     1    23    22    1
     2    23    21    1
     3    21    20    1
     4    20     1    1
     5     1     2    1
     6     2     3    1
     7     3     4   ar
     8     4     5   ar
     9     5    10    1
    10    10    11    3
    11    11    12    1
    12    12    13    3
    13    14    13    1
    14    14    15    1
    15    15    16    1
    16    16    17    1
    17    17    18    1
    18     5     6   ar
    19     6     7   ar
    20     7     8   am
    21     8     9    2
    22    23    24    1
    23    24    25    2
    24    24    26   am
    25    26    27    1
    26    23    30    1
    27    30    31    1
    28    30    32    2
    29    30    33    2
    30     8     1   am
    31     7     3   ar
    32    16    14    1
    33    18    19    1
    34    26    28    1
    35    27    29    1
@<TRIPOS>MOLECULE
*****
 33 35 0 0 0
SMALL
GASTEIGER

@<TRIPOS>ATOM
      1 N          62.5985   84.2560   14.3235 N.am    1  UNL1       -0.2560
      2 C          62.3509   84.9390   13.0111 C.3     1  UNL1        0.1394
      3 C          62.9616   86.3074   13.0781 C.ar    1  UNL1        0.0662
      4 C          63.1860   87.5752   12.3084 C.ar    1  UNL1        0.0247
      5 C          63.9497   88.5215   13.1866 C.ar    1  UNL1        0.0614
      6 C          64.1973   87.8386   14.4990 C.ar    1  UNL1        0.0922
      7 N          63.5866   86.4702   14.4320 N.ar    1  UNL1       -0.2624
      8 C          63.3622   85.2025   15.2016 C.2     1  UNL1        0.3234
      9 O          63.8210   84.9290   16.6033 O.2     1  UNL1       -0.2490
     10 C          64.3888   89.9074   12.8172 C.1     1  UNL1       -0.0497
     11 C          64.8279   91.2933   12.4479 C.1     1  UNL1       -0.0095
     12 C          65.2670   92.6793   12.0785 C.1     1  UNL1       -0.0138
     13 C          65.7061   94.0652   11.7092 C.1     1  UNL1       -0.0788
     14 C          66.1452   95.4511   11.3399 C.3     1  UNL1        0.0676
     15 C          66.4862   96.8558   11.7406 C.3     1  UNL1        0.0165
     16 C          66.5648   96.4470   10.2996 C.3     1  UNL1        0.0423
     17 C          66.8524   96.7858    8.8669 C.3     1  UNL1        0.1381
     18 O          68.0029   96.1342    8.1585 O.3     1  UNL1       -0.3820
     19 H          68.8363   96.4210    8.5636 H       1  UNL1        0.2104
     20 C          62.1594   82.8702   14.6929 C.3     1  UNL1        0.0977
     21 C          62.9895   81.6878   14.2891 C.3     1  UNL1        0.0524
     22 C          62.4922   80.3339   11.6586 C.3     1  UNL1        0.0331
     23 C          62.7409   81.0109   12.9738 C.3     1  UNL1        0.1820
     24 C          61.6881   80.1549   13.6134 C.2     1  UNL1        0.2640
     25 O          61.9654   78.7072   13.8911 O.2     1  UNL1       -0.2713
     26 N          60.3581   80.7467   13.9751 N.am    1  UNL1       -0.1956
     27 O          59.3054   79.8907   14.6147 O.3     1  UNL1       -0.2951
     28 H          60.1761   81.6969   13.7928 H       1  UNL1        0.1823
     29 H          59.6442   78.9882   14.7229 H       1  UNL1        0.2414
     30 S          63.7936   81.8668   12.3342 S.O2    1  UNL1       -0.0034
     31 C          64.8463   82.7228   11.6945 C.3     1  UNL1        0.1765
     32 O          62.8580   82.1712   11.2019 O.2     1  UNL1       -0.1726
     33 O          64.7291   81.5625   13.4665 O.2     1  UNL1       -0.1726
@<TRIPOS>BOND
     1    23    22    1
     2    23    21    1
     3    21    20    1
     4    20     1    1
     5     1     2    1
     6     2     3    1
     7     3     4   ar
     8     4     5   ar
     9     5    10    1
    10    10    11    3
    11    11    12    1
    12    12    13    3
    13    14    13    1
    14    14    15    1
    15    15    16    1
    16    16    17    1
    17    17    18    1
    18     5     6   ar
    19     6     7   ar
    20     7     8   am
    21     8     9    2
    22    23    24    1
    23    24    25    2
    24    24    26   am
    25    26    27    1
    26    23    30    1
    27    30    31    1
    28    30    32    2
    29    30    33    2
    30     8     1   am
    31     7     3   ar
    32    16    14    1
    33    18    19    1
    34    26    28    1
    35    27    29    1
@<TRIPOS>MOLECULE
*****
 33 35 0 0 0
SMALL
GASTEIGER

@<TRIPOS>ATOM
      1 N          64.6359   95.8517   -1.8318 N.am    1  UNL1       -0.2560
      2 C          65.5041   96.8072   -1.0681 C.3     1  UNL1        0.1394
      3 C          65.3914   96.4722    0.3897 C.ar    1  UNL1        0.0662
      4 C          65.8584   96.8558    1.7626 C.ar    1  UNL1        0.0247
      5 C          65.2091   95.9302    2.7483 C.ar    1  UNL1        0.0614
      6 C          64.3409   94.9747    1.9847 C.ar    1  UNL1        0.0922
      7 N          64.4536   95.3096    0.5269 N.ar    1  UNL1       -0.2624
      8 C          63.9866   94.9261   -0.8459 C.2     1  UNL1        0.3234
      9 O          63.0371   93.8126   -1.1752 O.2     1  UNL1       -0.2490
     10 C          65.3953   95.9557    4.2365 C.1     1  UNL1       -0.0497
     11 C          65.5815   95.9812    5.7247 C.1     1  UNL1       -0.0095
     12 C          65.7678   96.0066    7.2129 C.1     1  UNL1       -0.0138
     13 C          65.9541   96.0321    8.7011 C.1     1  UNL1       -0.0788
     14 C          66.1404   96.0576   10.1892 C.3     1  UNL1        0.0676
     15 C          66.4092   96.8214   11.4518 C.3     1  UNL1        0.0165
     16 C          66.1944   95.3379   11.5042 C.3     1  UNL1        0.0423
     17 C          66.1015   94.0658   12.2935 C.3     1  UNL1        0.1381
     18 O          67.2711   93.6032   13.1110 O.3     1  UNL1       -0.3820
     19 H          68.0073   93.3754   12.5220 H       1  UNL1        0.2104
     20 C          64.4497   95.8261   -3.3199 C.3     1  UNL1        0.0977
     21 C          64.5803   94.5337   -4.0701 C.3     1  UNL1        0.0524
     22 C          63.2787   94.2194   -6.7546 C.3     1  UNL1        0.0331
     23 C          63.9295   94.3766   -5.4123 C.3     1  UNL1        0.1820
     24 C          65.2610   94.5568   -6.0791 C.2     1  UNL1        0.2640
     25 O          65.7813   95.9365   -6.3544 O.2     1  UNL1       -0.2713
     26 N          66.0722   93.3574   -6.4706 N.am    1  UNL1       -0.1956
     27 O          67.4037   93.5376   -7.1374 O.3     1  UNL1       -0.2951
     28 H          65.7307   92.4519   -6.2899 H       1  UNL1        0.1823
     29 H          67.5883   94.4843   -7.2402 H       1  UNL1        0.2414
     30 S          62.5979   94.1963   -4.7457 S.O2    1  UNL1       -0.0034
     31 C          61.2664   94.0160   -4.0790 C.3     1  UNL1        0.1765
     32 O          63.1299   93.0051   -4.0053 O.2     1  UNL1       -0.1726
     33 O          62.0660   95.3874   -5.4860 O.2     1  UNL1       -0.1726
@<TRIPOS>BOND
     1    23    22    1
     2    23    21    1
     3    21    20    1
     4    20     1    1
     5     1     2    1
     6     2     3    1
     7     3     4   ar
     8     4     5   ar
     9     5    10    1
    10    10    11    3
    11    11    12    1
    12    12    13    3
    13    14    13    1
    14    14    15    1
    15    15    16    1
    16    16    17    1
    17    17    18    1
    18     5     6   ar
    19     6     7   ar
    20     7     8   am
    21     8     9    2
    22    23    24    1
    23    24    25    2
    24    24    26   am
    25    26    27    1
    26    23    30    1
    27    30    31    1
    28    30    32    2
    29    30    33    2
    30     8     1   am
    31     7     3   ar
    32    16    14    1
    33    18    19    1
    34    26    28    1
    35    27    29    1
@<TRIPOS>MOLECULE
*****
 33 35 0 0 0
SMALL
GASTEIGER

@<TRIPOS>ATOM
      1 N          60.1153   94.3415   -0.9366 N.am    1  UNL1       -0.2560
      2 C          58.8981   93.9589   -0.1478 C.3     1  UNL1        0.1394
      3 C          59.3541   93.2551    1.0959 C.ar    1  UNL1        0.0662
      4 C          58.8836   92.5837    2.3521 C.ar    1  UNL1        0.0247
      5 C          60.0918   92.1164    3.1083 C.ar    1  UNL1        0.0614
      6 C          61.3090   92.4990    2.3195 C.ar    1  UNL1        0.0922
      7 N          60.8530   93.2027    1.0758 N.ar    1  UNL1       -0.2624
      8 C          61.3235   93.8741   -0.1803 C.2     1  UNL1        0.3234
      9 O          62.7515   94.0477   -0.6056 O.2     1  UNL1       -0.2490
     10 C          60.0842   91.3935    4.4225 C.1     1  UNL1       -0.0497
     11 C          60.0766   90.6705    5.7368 C.1     1  UNL1       -0.0095
     12 C          60.0691   89.9475    7.0511 C.1     1  UNL1       -0.0138
     13 C          60.0615   89.2245    8.3653 C.1     1  UNL1       -0.0788
     14 C          60.0539   88.5015    9.6795 C.3     1  UNL1        0.0676
     15 C          59.5578   88.3744   11.0893 C.3     1  UNL1        0.0165
     16 C          60.5369   87.3763   10.5460 C.3     1  UNL1        0.0423
     17 C          61.3810   86.1505   10.7325 C.3     1  UNL1        0.1381
     18 O          62.2062   85.9899   11.9749 O.3     1  UNL1       -0.3820
     19 H          62.8991   86.6684   11.9928 H       1  UNL1        0.2104
     20 C          60.1229   95.0644   -2.2508 C.3     1  UNL1        0.0977
     21 C          58.8307   95.3515   -2.9565 C.3     1  UNL1        0.0524
     22 C          58.1468   93.8921   -5.4867 C.3     1  UNL1        0.0331
     23 C          58.4888   94.6218   -4.2216 C.3     1  UNL1        0.1820
     24 C          57.5723   93.7173   -3.4522 C.2     1  UNL1        0.2640
     25 O          56.3467   94.2765   -2.7925 O.2     1  UNL1       -0.2713
     26 N          57.8814   92.2536   -3.3426 N.am    1  UNL1       -0.1956
     27 O          56.9649   91.3491   -2.5733 O.3     1  UNL1       -0.2951
     28 H          58.6858   91.8866   -3.7756 H       1  UNL1        0.1823
     29 H          56.2271   91.8662   -2.2138 H       1  UNL1        0.2414
     30 S          59.4052   95.5262   -4.9910 S.O2    1  UNL1       -0.0034
     31 C          60.3218   96.4306   -5.7604 C.3     1  UNL1        0.1765
     32 O          60.2160   94.3394   -5.4203 O.2     1  UNL1       -0.1726
     33 O          58.5946   96.7130   -4.5617 O.2     1  UNL1       -0.1726
@<TRIPOS>BOND
     1    23    22    1
     2    23    21    1
     3    21    20    1
     4    20     1    1
     5     1     2    1
     6     2     3    1
     7     3     4   ar
     8     4     5   ar
     9     5    10    1
    10    10    11    3
    11    11    12    1
    12    12    13    3
    13    14    13    1
    14    14    15    1
    15    15    16    1
    16    16    17    1
    17    17    18    1
    18     5     6   ar
    19     6     7   ar
    20     7     8   am
    21     8     9    2
    22    23    24    1
    23    24    25    2
    24    24    26   am
    25    26    27    1
    26    23    30    1
    27    30    31    1
    28    30    32    2
    29    30    33    2
    30     8     1   am
    31     7     3   ar
    32    16    14    1
    33    18    19    1
    34    26    28    1
    35    27    29    1
