@<TRIPOS>MOLECULE
*****
 27 29 0 0 0
SMALL
GASTEIGER

@<TRIPOS>ATOM
      1 C          63.6232   90.6493   11.8560 C.ar    1  UNL1        0.1534
      2 C          62.6432   90.6465   10.7204 C.ar    1  UNL1        0.0351
      3 C          61.8017   89.4327   10.4590 C.ar    1  UNL1        0.0722
      4 CL         60.8216   89.4298    9.3233 Cl      1  UNL1       -0.0809
      5 C          61.9402   88.2216   11.3331 C.ar    1  UNL1        0.0577
      6 C          62.9202   88.2244   12.4687 C.ar    1  UNL1        0.0462
      7 C          63.7617   89.4382   12.7301 C.ar    1  UNL1        0.1602
      8 F          64.7417   89.4411   13.8657 F       1  UNL1       -0.2027
      9 O          63.9932   91.8834   13.5412 O.2     1  UNL1       -0.1498
     10 S          64.4647   91.8632   12.1175 S.O2    1  UNL1        0.0772
     11 O          64.9363   91.8431   10.6937 O.2     1  UNL1       -0.1498
     12 N          65.3062   93.0771   12.3790 N.pl3   1  UNL1       -0.1936
     13 H          65.1602   93.8990   11.8571 H       1  UNL1        0.1758
     14 C          66.3702   93.0386   13.4357 C.ar    1  UNL1        0.1786
     15 N          66.5117   93.9984   14.5797 N.ar    1  UNL1       -0.2214
     16 C          67.7084   93.5866   15.3849 C.ar    1  UNL1        0.1079
     17 C          68.3065   92.3723   14.7385 C.ar    1  UNL1        0.0588
     18 S          67.4794   92.0336   13.5338 S.2     1  UNL1       -0.0497
     19 N          61.0987   87.0077   11.0716 N.pl3   1  UNL1       -0.3319
     20 H          60.2081   86.9280   11.4836 H       1  UNL1        0.1468
     21 C          61.6140   85.9152   10.1823 C.3     1  UNL1        0.0895
     22 C          62.5360   84.8695   10.7361 C.3     1  UNL1        0.0492
     23 C          63.4326   84.0964    9.8151 C.3     1  UNL1        0.0068
     24 C          64.3545   83.0508   10.3690 C.3     1  UNL1        0.0322
     25 C          64.3798   82.7783   11.8438 C.3     1  UNL1        0.1422
     26 O          63.4831   83.5514   12.7648 O.3     1  UNL1       -0.3537
     27 C          62.5612   84.5970   12.2110 C.3     1  UNL1        0.1438
@<TRIPOS>BOND
     1     9    10    2
     2    10    11    2
     3    10    12    1
     4    12    14    1
     5    14    15   ar
     6    15    16   ar
     7    16    17   ar
     8    17    18   ar
     9    10     1    1
    10     1     2   ar
    11     2     3   ar
    12     3     4    1
    13     3     5   ar
    14     5    19    1
    15    19    21    1
    16    22    21    1
    17    22    23    1
    18    23    24    1
    19    24    25    1
    20    25    26    1
    21    26    27    1
    22     5     6   ar
    23     6     7   ar
    24     7     8    1
    25    18    14   ar
    26     7     1   ar
    27    27    22    1
    28    12    13    1
    29    19    20    1
@<TRIPOS>MOLECULE
*****
 27 29 0 0 0
SMALL
GASTEIGER

@<TRIPOS>ATOM
      1 C          62.9682   90.1171   11.9226 C.ar    1  UNL1        0.1534
      2 C          63.6349   90.1790   13.2648 C.ar    1  UNL1        0.0351
      3 C          64.7713   91.1307   13.4946 C.ar    1  UNL1        0.0722
      4 CL         65.4380   91.1927   14.8368 Cl      1  UNL1       -0.0809
      5 C          65.2409   92.0206   12.3821 C.ar    1  UNL1        0.0577
      6 C          64.5742   91.9587   11.0399 C.ar    1  UNL1        0.0462
      7 C          63.4378   91.0069   10.8101 C.ar    1  UNL1        0.1602
      8 F          62.7710   90.9450    9.4678 F       1  UNL1       -0.2027
      9 O          62.7610   88.0060   11.8993 O.2     1  UNL1       -0.1498
     10 S          61.8318   89.1653   11.6928 S.O2    1  UNL1        0.0772
     11 O          60.9026   90.3245   11.4862 O.2     1  UNL1       -0.1498
     12 N          60.6955   88.2135   11.4630 N.pl3   1  UNL1       -0.1936
     13 H          60.1226   87.9400   12.2155 H       1  UNL1        0.1758
     14 C          60.4321   87.6782   10.0866 C.ar    1  UNL1        0.1786
     15 N          59.6484   88.3658    9.0082 N.ar    1  UNL1       -0.2214
     16 C          59.6382   87.4740    7.8023 C.ar    1  UNL1        0.1079
     17 C          60.4155   86.2350    8.1353 C.ar    1  UNL1        0.0588
     18 S          60.9062   86.3613    9.5472 S.2     1  UNL1       -0.0497
     19 N          66.3773   92.9724   12.6119 N.pl3   1  UNL1       -0.3319
     20 H          67.2325   92.6408   12.9695 H       1  UNL1        0.1468
     21 C          66.2106   94.4294   12.2969 C.3     1  UNL1        0.0895
     22 C          66.5468   94.9442   10.9286 C.3     1  UNL1        0.0492
     23 C          67.2648   94.0619    9.9509 C.3     1  UNL1        0.0068
     24 C          67.6009   94.5767    8.5827 C.3     1  UNL1        0.0322
     25 C          67.2191   95.9737    8.1922 C.3     1  UNL1        0.1422
     26 O          66.5011   96.8560    9.1699 O.3     1  UNL1       -0.3537
     27 C          66.1649   96.3412   10.5381 C.3     1  UNL1        0.1438
@<TRIPOS>BOND
     1     9    10    2
     2    10    11    2
     3    10    12    1
     4    12    14    1
     5    14    15   ar
     6    15    16   ar
     7    16    17   ar
     8    17    18   ar
     9    10     1    1
    10     1     2   ar
    11     2     3   ar
    12     3     4    1
    13     3     5   ar
    14     5    19    1
    15    19    21    1
    16    22    21    1
    17    22    23    1
    18    23    24    1
    19    24    25    1
    20    25    26    1
    21    26    27    1
    22     5     6   ar
    23     6     7   ar
    24     7     8    1
    25    18    14   ar
    26     7     1   ar
    27    27    22    1
    28    12    13    1
    29    19    20    1
@<TRIPOS>MOLECULE
*****
 27 29 0 0 0
SMALL
GASTEIGER

@<TRIPOS>ATOM
      1 C          64.8367   91.7689   11.9369 C.ar    1  UNL1        0.1534
      2 C          63.8702   91.5907   10.8038 C.ar    1  UNL1        0.0351
      3 C          62.8989   90.4478   10.8193 C.ar    1  UNL1        0.0722
      4 CL         61.9323   90.2696    9.6861 Cl      1  UNL1       -0.0809
      5 C          62.8941   89.4831   11.9679 C.ar    1  UNL1        0.0577
      6 C          63.8606   89.6614   13.1010 C.ar    1  UNL1        0.0462
      7 C          64.8320   90.8043   13.0855 C.ar    1  UNL1        0.1602
      8 F          65.7985   90.9825   14.2187 F       1  UNL1       -0.2027
      9 O          66.2406   92.5256   10.5381 O.2     1  UNL1       -0.1498
     10 S          65.8081   92.9119   11.9214 S.O2    1  UNL1        0.0772
     11 O          65.3757   93.2982   13.3048 O.2     1  UNL1       -0.1498
     12 N          66.7795   94.0548   11.9059 N.pl3   1  UNL1       -0.1936
     13 H          67.4235   94.1634   12.6426 H       1  UNL1        0.1758
     14 C          66.7696   95.0321   10.7680 C.ar    1  UNL1        0.1786
     15 N          67.7635   95.0890    9.6460 N.ar    1  UNL1       -0.2214
     16 C          67.3722   96.2162    8.7369 C.ar    1  UNL1        0.1079
     17 C          66.1365   96.8559    9.2971 C.ar    1  UNL1        0.0588
     18 S          65.7640   96.1241   10.5525 S.2     1  UNL1       -0.0497
     19 N          61.9227   88.3402   11.9833 N.pl3   1  UNL1       -0.3319
     20 H          61.0519   88.4403   12.4316 H       1  UNL1        0.1468
     21 C          62.2782   87.0448   11.3159 C.3     1  UNL1        0.0895
     22 C          61.6191   86.6610   10.0242 C.3     1  UNL1        0.0492
     23 C          62.3761   85.8637    9.0039 C.3     1  UNL1        0.0068
     24 C          61.7170   85.4799    7.7123 C.3     1  UNL1        0.0322
     25 C          60.3009   85.8934    7.4411 C.3     1  UNL1        0.1422
     26 O          59.5438   86.6907    8.4614 O.3     1  UNL1       -0.3537
     27 C          60.2029   87.0745    9.7530 C.3     1  UNL1        0.1438
@<TRIPOS>BOND
     1     9    10    2
     2    10    11    2
     3    10    12    1
     4    12    14    1
     5    14    15   ar
     6    15    16   ar
     7    16    17   ar
     8    17    18   ar
     9    10     1    1
    10     1     2   ar
    11     2     3   ar
    12     3     4    1
    13     3     5   ar
    14     5    19    1
    15    19    21    1
    16    22    21    1
    17    22    23    1
    18    23    24    1
    19    24    25    1
    20    25    26    1
    21    26    27    1
    22     5     6   ar
    23     6     7   ar
    24     7     8    1
    25    18    14   ar
    26     7     1   ar
    27    27    22    1
    28    12    13    1
    29    19    20    1
@<TRIPOS>MOLECULE
*****
 27 29 0 0 0
SMALL
GASTEIGER

@<TRIPOS>ATOM
      1 C          63.7486   90.8276   11.8418 C.ar    1  UNL1        0.1534
      2 C          62.7546   90.7846   10.7193 C.ar    1  UNL1        0.0351
      3 C          61.9009   89.5675   10.5198 C.ar    1  UNL1        0.0722
      4 CL         60.9068   89.5244    9.3973 Cl      1  UNL1       -0.0809
      5 C          62.0413   88.3934   11.4427 C.ar    1  UNL1        0.0577
      6 C          63.0353   88.4364   12.5652 C.ar    1  UNL1        0.0462
      7 C          63.8890   89.6535   12.7647 C.ar    1  UNL1        0.1602
      8 F          64.8831   89.6966   13.8873 F       1  UNL1       -0.2027
      9 O          64.2861   92.0262   13.5075 O.2     1  UNL1       -0.1498
     10 S          64.6024   92.0448   12.0414 S.O2    1  UNL1        0.0772
     11 O          64.9187   92.0633   10.5752 O.2     1  UNL1       -0.1498
     12 N          65.4561   93.2618   12.2410 N.pl3   1  UNL1       -0.1936
     13 H          65.4376   93.7404   13.1011 H       1  UNL1        0.1758
     14 C          66.3380   93.7498   11.1300 C.ar    1  UNL1        0.1786
     15 N          67.5028   93.0116   10.5400 N.ar    1  UNL1       -0.2214
     16 C          68.0946   93.8672    9.4594 C.ar    1  UNL1        0.1079
     17 C          67.2955   95.1343    9.3816 C.ar    1  UNL1        0.0588
     18 S          66.2098   95.0617   10.4141 S.2     1  UNL1       -0.0497
     19 N          61.1875   87.1763   11.2432 N.pl3   1  UNL1       -0.3319
     20 H          60.3337   87.0894   11.7256 H       1  UNL1        0.1468
     21 C          61.6346   86.0916   10.3086 C.3     1  UNL1        0.0895
     22 C          62.5434   85.0045   10.8012 C.3     1  UNL1        0.0492
     23 C          63.3468   84.1984    9.8241 C.3     1  UNL1        0.0068
     24 C          64.2555   83.1114   10.3168 C.3     1  UNL1        0.0322
     25 C          64.3608   82.8306   11.7865 C.3     1  UNL1        0.1422
     26 O          63.5574   83.6367   12.7635 O.3     1  UNL1       -0.3537
     27 C          62.6487   84.7237   12.2709 C.3     1  UNL1        0.1438
@<TRIPOS>BOND
     1     9    10    2
     2    10    11    2
     3    10    12    1
     4    12    14    1
     5    14    15   ar
     6    15    16   ar
     7    16    17   ar
     8    17    18   ar
     9    10     1    1
    10     1     2   ar
    11     2     3   ar
    12     3     4    1
    13     3     5   ar
    14     5    19    1
    15    19    21    1
    16    22    21    1
    17    22    23    1
    18    23    24    1
    19    24    25    1
    20    25    26    1
    21    26    27    1
    22     5     6   ar
    23     6     7   ar
    24     7     8    1
    25    18    14   ar
    26     7     1   ar
    27    27    22    1
    28    12    13    1
    29    19    20    1
@<TRIPOS>MOLECULE
*****
 27 29 0 0 0
SMALL
GASTEIGER

@<TRIPOS>ATOM
      1 C          63.7207   86.3678   15.2876 C.ar    1  UNL1        0.1534
      2 C          63.8696   87.1185   13.9976 C.ar    1  UNL1        0.0351
      3 C          63.7449   88.6132   13.9811 C.ar    1  UNL1        0.0722
      4 CL         63.8937   89.3641   12.6910 Cl      1  UNL1       -0.0809
      5 C          63.4713   89.3571   15.2546 C.ar    1  UNL1        0.0577
      6 C          63.3225   88.6063   16.5446 C.ar    1  UNL1        0.0462
      7 C          63.4472   87.1117   16.5611 C.ar    1  UNL1        0.1602
      8 F          63.2984   86.3608   17.8511 F       1  UNL1       -0.2027
      9 O          65.2954   84.9900   14.9381 O.2     1  UNL1       -0.1498
     10 S          63.8455   84.8730   15.3041 S.O2    1  UNL1        0.0772
     11 O          62.3956   84.7560   15.6702 O.2     1  UNL1       -0.1498
     12 N          63.9702   83.3783   15.3207 N.pl3   1  UNL1       -0.1936
     13 H          64.3822   82.9272   16.0927 H       1  UNL1        0.1758
     14 C          63.4673   82.5708   14.1608 C.ar    1  UNL1        0.1786
     15 N          63.0687   81.1253   14.1998 N.ar    1  UNL1       -0.2214
     16 C          62.6298   80.7282   12.8215 C.ar    1  UNL1        0.1079
     17 C          62.7571   81.9284   11.9307 C.ar    1  UNL1        0.0588
     18 S          63.2747   83.0672   12.7585 S.2     1  UNL1       -0.0497
     19 N          63.3466   90.8519   15.2380 N.pl3   1  UNL1       -0.3319
     20 H          62.6386   91.2809   14.7052 H       1  UNL1        0.1468
     21 C          64.3006   91.6929   16.0332 C.3     1  UNL1        0.0895
     22 C          65.6803   91.9611   15.5091 C.3     1  UNL1        0.0492
     23 C          66.6880   92.6602   16.3728 C.3     1  UNL1        0.0068
     24 C          68.0676   92.9283   15.8486 C.3     1  UNL1        0.0322
     25 C          68.4396   92.4973   14.4609 C.3     1  UNL1        0.1422
     26 O          67.4319   91.7982   13.5972 O.3     1  UNL1       -0.3537
     27 C          66.0523   91.5301   14.1213 C.3     1  UNL1        0.1438
@<TRIPOS>BOND
     1     9    10    2
     2    10    11    2
     3    10    12    1
     4    12    14    1
     5    14    15   ar
     6    15    16   ar
     7    16    17   ar
     8    17    18   ar
     9    10     1    1
    10     1     2   ar
    11     2     3   ar
    12     3     4    1
    13     3     5   ar
    14     5    19    1
    15    19    21    1
    16    22    21    1
    17    22    23    1
    18    23    24    1
    19    24    25    1
    20    25    26    1
    21    26    27    1
    22     5     6   ar
    23     6     7   ar
    24     7     8    1
    25    18    14   ar
    26     7     1   ar
    27    27    22    1
    28    12    13    1
    29    19    20    1
@<TRIPOS>MOLECULE
*****
 27 29 0 0 0
SMALL
GASTEIGER

@<TRIPOS>ATOM
      1 C          64.7365   91.6151   11.9718 C.ar    1  UNL1        0.1534
      2 C          64.7753   90.6106   13.0850 C.ar    1  UNL1        0.0351
      3 C          63.8258   89.4494   13.0809 C.ar    1  UNL1        0.0722
      4 CL         63.8646   88.4448   14.1942 Cl      1  UNL1       -0.0809
      5 C          62.8375   89.2927   11.9634 C.ar    1  UNL1        0.0577
      6 C          62.7987   90.2972   10.8501 C.ar    1  UNL1        0.0462
      7 C          63.7482   91.4584   10.8543 C.ar    1  UNL1        0.1602
      8 F          63.7094   92.4630    9.7410 F       1  UNL1       -0.2027
      9 O          66.1527   92.3996   10.6011 O.2     1  UNL1       -0.1498
     10 S          65.6860   92.7764   11.9759 S.O2    1  UNL1        0.0772
     11 O          65.2193   93.1531   13.3507 O.2     1  UNL1       -0.1498
     12 N          66.6355   93.9376   11.9800 N.pl3   1  UNL1       -0.1936
     13 H          67.2527   94.0661   12.7362 H       1  UNL1        0.1758
     14 C          66.6446   94.9030   10.8320 C.ar    1  UNL1        0.1786
     15 N          67.7104   95.0149    9.7825 N.ar    1  UNL1       -0.2214
     16 C          67.3140   96.1071    8.8338 C.ar    1  UNL1        0.1079
     17 C          66.0031   96.6702    9.2970 C.ar    1  UNL1        0.0588
     18 S          65.5894   95.9260   10.5320 S.2     1  UNL1       -0.0497
     19 N          61.8880   88.1314   11.9593 N.pl3   1  UNL1       -0.3319
     20 H          61.9682   87.4276   12.6430 H       1  UNL1        0.1468
     21 C          60.8164   88.0425   10.9135 C.3     1  UNL1        0.0895
     22 C          60.9996   87.1439    9.7264 C.3     1  UNL1        0.0492
     23 C          62.3171   86.4650    9.4959 C.3     1  UNL1        0.0068
     24 C          62.5002   85.5664    8.3089 C.3     1  UNL1        0.0322
     25 C          61.3657   85.3467    7.3525 C.3     1  UNL1        0.1422
     26 O          60.0482   86.0256    7.5830 O.3     1  UNL1       -0.3537
     27 C          59.8651   86.9242    8.7700 C.3     1  UNL1        0.1438
@<TRIPOS>BOND
     1     9    10    2
     2    10    11    2
     3    10    12    1
     4    12    14    1
     5    14    15   ar
     6    15    16   ar
     7    16    17   ar
     8    17    18   ar
     9    10     1    1
    10     1     2   ar
    11     2     3   ar
    12     3     4    1
    13     3     5   ar
    14     5    19    1
    15    19    21    1
    16    22    21    1
    17    22    23    1
    18    23    24    1
    19    24    25    1
    20    25    26    1
    21    26    27    1
    22     5     6   ar
    23     6     7   ar
    24     7     8    1
    25    18    14   ar
    26     7     1   ar
    27    27    22    1
    28    12    13    1
    29    19    20    1
@<TRIPOS>MOLECULE
*****
 27 29 0 0 0
SMALL
GASTEIGER

@<TRIPOS>ATOM
      1 C          64.8805   91.7385   12.0004 C.ar    1  UNL1        0.1534
      2 C          64.9195   90.7838   13.1567 C.ar    1  UNL1        0.0351
      3 C          63.9218   89.6670   13.2411 C.ar    1  UNL1        0.0722
      4 CL         63.9608   88.7122   14.3975 Cl      1  UNL1       -0.0809
      5 C          62.8850   89.5049   12.1693 C.ar    1  UNL1        0.0577
      6 C          62.8459   90.4595   11.0131 C.ar    1  UNL1        0.0462
      7 C          63.8437   91.5763   10.9286 C.ar    1  UNL1        0.1602
      8 F          63.8047   92.5311    9.7723 F       1  UNL1       -0.2027
      9 O          66.3080   92.3691   10.5635 O.2     1  UNL1       -0.1498
     10 S          65.8783   92.8554   11.9159 S.O2    1  UNL1        0.0772
     11 O          65.4486   93.3416   13.2682 O.2     1  UNL1       -0.1498
     12 N          66.8760   93.9722   11.8313 N.pl3   1  UNL1       -0.1936
     13 H          67.5704   94.0653   12.5230 H       1  UNL1        0.1758
     14 C          66.8158   94.9471   10.6929 C.ar    1  UNL1        0.1786
     15 N          67.8228   95.0767    9.5888 N.ar    1  UNL1       -0.2214
     16 C          67.3674   96.1733    8.6723 C.ar    1  UNL1        0.1079
     17 C          66.0788   96.7215    9.2100 C.ar    1  UNL1        0.0588
     18 S          65.7379   95.9637   10.4589 S.2     1  UNL1       -0.0497
     19 N          61.8872   88.3880   12.2538 N.pl3   1  UNL1       -0.3319
     20 H          61.5607   88.0850   13.1318 H       1  UNL1        0.1468
     21 C          61.3869   87.7328   11.0007 C.3     1  UNL1        0.0895
     22 C          62.0780   86.5144   10.4640 C.3     1  UNL1        0.0492
     23 C          62.3882   86.4118    9.0001 C.3     1  UNL1        0.0068
     24 C          63.0793   85.1934    8.4635 C.3     1  UNL1        0.0322
     25 C          63.4602   84.0777    9.3909 C.3     1  UNL1        0.1422
     26 O          63.1501   84.1803   10.8548 O.3     1  UNL1       -0.3537
     27 C          62.4590   85.3987   11.3914 C.3     1  UNL1        0.1438
@<TRIPOS>BOND
     1     9    10    2
     2    10    11    2
     3    10    12    1
     4    12    14    1
     5    14    15   ar
     6    15    16   ar
     7    16    17   ar
     8    17    18   ar
     9    10     1    1
    10     1     2   ar
    11     2     3   ar
    12     3     4    1
    13     3     5   ar
    14     5    19    1
    15    19    21    1
    16    22    21    1
    17    22    23    1
    18    23    24    1
    19    24    25    1
    20    25    26    1
    21    26    27    1
    22     5     6   ar
    23     6     7   ar
    24     7     8    1
    25    18    14   ar
    26     7     1   ar
    27    27    22    1
    28    12    13    1
    29    19    20    1
@<TRIPOS>MOLECULE
*****
 27 29 0 0 0
SMALL
GASTEIGER

@<TRIPOS>ATOM
      1 C          63.7894   86.5316   14.5089 C.ar    1  UNL1        0.1534
      2 C          63.8830   87.5423   15.6132 C.ar    1  UNL1        0.0351
      3 C          63.7891   89.0062   15.3000 C.ar    1  UNL1        0.0722
      4 CL         63.8827   90.0171   16.4043 Cl      1  UNL1       -0.0809
      5 C          63.6016   89.4593   13.8824 C.ar    1  UNL1        0.0577
      6 C          63.5080   88.4485   12.7781 C.ar    1  UNL1        0.0462
      7 C          63.6019   86.9847   13.0914 C.ar    1  UNL1        0.1602
      8 F          63.5083   85.9738   11.9870 F       1  UNL1       -0.2027
      9 O          65.3624   85.1099   14.5762 O.2     1  UNL1       -0.1498
     10 S          63.8833   85.0676   14.8222 S.O2    1  UNL1        0.0772
     11 O          62.4042   85.0253   15.0682 O.2     1  UNL1       -0.1498
     12 N          63.9773   83.6037   15.1354 N.pl3   1  UNL1       -0.1936
     13 H          64.4292   83.3041   15.9572 H       1  UNL1        0.1758
     14 C          63.3826   82.5961   14.1966 C.ar    1  UNL1        0.1786
     15 N          62.4113   81.5139   14.5646 N.ar    1  UNL1       -0.2214
     16 C          62.0832   80.7429   13.3205 C.ar    1  UNL1        0.1079
     17 C          62.8517   81.3486   12.1835 C.ar    1  UNL1        0.0588
     18 S          63.6548   82.4941   12.7251 S.2     1  UNL1       -0.0497
     19 N          63.5077   90.9233   13.5691 N.pl3   1  UNL1       -0.3319
     20 H          62.6947   91.4260   13.8050 H       1  UNL1        0.1468
     21 C          64.6523   91.6213   12.8965 C.3     1  UNL1        0.0895
     22 C          65.8753   91.9868   13.6844 C.3     1  UNL1        0.0492
     23 C          65.7513   92.3576   15.1326 C.3     1  UNL1        0.0068
     24 C          66.9743   92.7232   15.9204 C.3     1  UNL1        0.0322
     25 C          68.3211   92.7180   15.2602 C.3     1  UNL1        0.1422
     26 O          68.4451   92.3472   13.8121 O.3     1  UNL1       -0.3537
     27 C          67.2222   91.9816   13.0242 C.3     1  UNL1        0.1438
@<TRIPOS>BOND
     1     9    10    2
     2    10    11    2
     3    10    12    1
     4    12    14    1
     5    14    15   ar
     6    15    16   ar
     7    16    17   ar
     8    17    18   ar
     9    10     1    1
    10     1     2   ar
    11     2     3   ar
    12     3     4    1
    13     3     5   ar
    14     5    19    1
    15    19    21    1
    16    22    21    1
    17    22    23    1
    18    23    24    1
    19    24    25    1
    20    25    26    1
    21    26    27    1
    22     5     6   ar
    23     6     7   ar
    24     7     8    1
    25    18    14   ar
    26     7     1   ar
    27    27    22    1
    28    12    13    1
    29    19    20    1
@<TRIPOS>MOLECULE
*****
 27 29 0 0 0
SMALL
GASTEIGER

@<TRIPOS>ATOM
      1 C          63.3713   85.5733   15.2632 C.ar    1  UNL1        0.1534
      2 C          63.1151   86.4760   16.4334 C.ar    1  UNL1        0.0351
      3 C          63.4493   87.9355   16.3420 C.ar    1  UNL1        0.0722
      4 CL         63.1931   88.8383   17.5122 Cl      1  UNL1       -0.0809
      5 C          64.0397   88.4921   15.0805 C.ar    1  UNL1        0.0577
      6 C          64.2960   87.5894   13.9103 C.ar    1  UNL1        0.0462
      7 C          63.9618   86.1299   14.0017 C.ar    1  UNL1        0.1602
      8 F          64.2180   85.2271   12.8315 F       1  UNL1       -0.2027
      9 O          64.4994   83.7809   15.3854 O.2     1  UNL1       -0.1498
     10 S          63.0371   84.1138   15.3546 S.O2    1  UNL1        0.0772
     11 O          61.5749   84.4467   15.3238 O.2     1  UNL1       -0.1498
     12 N          62.7030   82.6544   15.4459 N.pl3   1  UNL1       -0.1936
     13 H          62.4892   82.2520   16.3186 H       1  UNL1        0.1758
     14 C          62.6945   81.8079   14.2075 C.ar    1  UNL1        0.1786
     15 N          62.7020   80.3086   14.1643 N.ar    1  UNL1       -0.2214
     16 C          62.6892   79.8863   12.7250 C.ar    1  UNL1        0.1079
     17 C          62.6738   81.1247   11.8787 C.ar    1  UNL1        0.0588
     18 S          62.6770   82.3124   12.7950 S.2     1  UNL1       -0.0497
     19 N          64.3740   89.9516   14.9891 N.pl3   1  UNL1       -0.3319
     20 H          64.9578   90.3661   15.6648 H       1  UNL1        0.1468
     21 C          63.8187   90.7794   13.8683 C.3     1  UNL1        0.0895
     22 C          64.7421   91.5789   12.9975 C.3     1  UNL1        0.0492
     23 C          64.4325   91.7571   11.5407 C.3     1  UNL1        0.0068
     24 C          65.3559   92.5566   10.6701 C.3     1  UNL1        0.0322
     25 C          66.5890   93.1778   11.2562 C.3     1  UNL1        0.1422
     26 O          66.8987   92.9996   12.7130 O.3     1  UNL1       -0.3537
     27 C          65.9752   92.2001   13.5836 C.3     1  UNL1        0.1438
@<TRIPOS>BOND
     1     9    10    2
     2    10    11    2
     3    10    12    1
     4    12    14    1
     5    14    15   ar
     6    15    16   ar
     7    16    17   ar
     8    17    18   ar
     9    10     1    1
    10     1     2   ar
    11     2     3   ar
    12     3     4    1
    13     3     5   ar
    14     5    19    1
    15    19    21    1
    16    22    21    1
    17    22    23    1
    18    23    24    1
    19    24    25    1
    20    25    26    1
    21    26    27    1
    22     5     6   ar
    23     6     7   ar
    24     7     8    1
    25    18    14   ar
    26     7     1   ar
    27    27    22    1
    28    12    13    1
    29    19    20    1
