@<TRIPOS>MOLECULE
*****
 26 29 0 0 0
SMALL
GASTEIGER

@<TRIPOS>ATOM
      1 C          61.8947   89.2463   10.4100 C.ar    1  UNL1        0.0143
      2 C          62.5500   88.1257   11.1615 C.ar    1  UNL1        0.0970
      3 N          62.0254   86.8314   10.6141 N.ar    1  UNL1       -0.2080
      4 C          61.0459   87.1521    9.5243 C.ar    1  UNL1        0.0823
      5 C          60.2171   86.2779    8.6305 C.ar    1  UNL1        0.0189
      6 C          59.3075   86.8963    7.6106 C.ar    1  UNL1        0.0015
      7 C          59.2267   88.3888    7.4844 C.ar    1  UNL1        0.0001
      8 C          60.0555   89.2629    8.3782 C.ar    1  UNL1        0.0013
      9 C          60.9651   88.6446    9.3981 C.ar    1  UNL1        0.0163
     10 S          62.4124   85.4576   11.0755 S.O2    1  UNL1        0.0860
     11 O          61.8626   85.7603   12.4378 O.2     1  UNL1       -0.1476
     12 O          62.9622   85.1549    9.7131 O.2     1  UNL1       -0.1476
     13 C          62.7994   84.0838   11.5368 C.ar    1  UNL1        0.1277
     14 C          62.5718   83.6797   12.9633 C.ar    1  UNL1        0.0204
     15 C          62.9588   82.3059   13.4246 C.ar    1  UNL1        0.0014
     16 C          63.5735   81.3361   12.4593 C.ar    1  UNL1        0.0001
     17 C          63.8010   81.7401   11.0328 C.ar    1  UNL1        0.0014
     18 C          63.4140   83.1140   10.5716 C.ar    1  UNL1        0.0204
     19 C          62.1280   90.7114   10.6314 C.3     1  UNL1        0.1008
     20 C          67.0117   92.5584   13.5874 C.3     1  UNL1        0.0897
     21 N          65.7908   92.0967   12.8485 N.3     1  UNL1       -0.2691
     22 C          65.6118   92.4492   11.4015 C.3     1  UNL1        0.0897
     23 C          64.3909   91.9875   10.6625 C.3     1  UNL1        0.0899
     24 N          63.3490   91.1732   11.3704 N.3     1  UNL1       -0.2665
     25 C          63.5279   90.8206   12.8174 C.3     1  UNL1        0.0899
     26 C          64.7488   91.2823   13.5564 C.3     1  UNL1        0.0897
@<TRIPOS>BOND
     1    20    21    1
     2    21    22    1
     3    22    23    1
     4    23    24    1
     5    24    19    1
     6    19     1    1
     7     1     2   ar
     8     2     3   ar
     9     3    10    1
    10    10    11    2
    11    10    12    2
    12    10    13    1
    13    13    14   ar
    14    14    15   ar
    15    15    16   ar
    16    16    17   ar
    17    17    18   ar
    18     3     4   ar
    19     4     5   ar
    20     5     6   ar
    21     6     7   ar
    22     7     8   ar
    23     8     9   ar
    24    24    25    1
    25    25    26    1
    26    26    21    1
    27     9     1   ar
    28    18    13   ar
    29     9     4   ar
@<TRIPOS>MOLECULE
*****
 26 29 0 0 0
SMALL
GASTEIGER

@<TRIPOS>ATOM
      1 C          65.5992   92.1962   13.1374 C.ar    1  UNL1        0.0143
      2 C          65.5004   91.2900   14.3286 C.ar    1  UNL1        0.0970
      3 N          64.4574   90.2523   14.0363 N.ar    1  UNL1       -0.2080
      4 C          63.9116   90.5172   12.6644 C.ar    1  UNL1        0.0823
      5 C          62.8633   89.8197   11.8493 C.ar    1  UNL1        0.0189
      6 C          62.5206   90.3236   10.4787 C.ar    1  UNL1        0.0015
      7 C          63.2263   91.5250    9.9232 C.ar    1  UNL1        0.0001
      8 C          64.2746   92.2225   10.7383 C.ar    1  UNL1        0.0013
      9 C          64.6173   91.7186   12.1089 C.ar    1  UNL1        0.0163
     10 S          64.0344   89.1442   14.9545 S.O2    1  UNL1        0.0860
     11 O          63.4732   90.1525   15.9128 O.2     1  UNL1       -0.1476
     12 O          64.5956   88.1359   13.9963 O.2     1  UNL1       -0.1476
     13 C          63.6115   88.0361   15.8728 C.ar    1  UNL1        0.1277
     14 C          63.0009   88.3574   17.2047 C.ar    1  UNL1        0.0204
     15 C          62.5780   87.2493   18.1228 C.ar    1  UNL1        0.0014
     16 C          62.7656   85.8196   17.7091 C.ar    1  UNL1        0.0001
     17 C          63.3762   85.4983   16.3773 C.ar    1  UNL1        0.0014
     18 C          63.7991   86.6065   15.4591 C.ar    1  UNL1        0.0204
     19 C          66.5185   93.3734   12.9990 C.3     1  UNL1        0.1008
     20 C          66.9668   96.2276    7.7404 C.3     1  UNL1        0.0897
     21 N          66.8548   95.5140    9.0550 N.3     1  UNL1       -0.2691
     22 C          66.1712   96.1785   10.2131 C.3     1  UNL1        0.0897
     23 C          66.0591   95.4650   11.5278 C.3     1  UNL1        0.0899
     24 N          66.6306   94.0870   11.6843 N.3     1  UNL1       -0.2665
     25 C          67.3141   93.4225   10.5261 C.3     1  UNL1        0.0899
     26 C          67.4262   94.1360    9.2115 C.3     1  UNL1        0.0897
@<TRIPOS>BOND
     1    20    21    1
     2    21    22    1
     3    22    23    1
     4    23    24    1
     5    24    19    1
     6    19     1    1
     7     1     2   ar
     8     2     3   ar
     9     3    10    1
    10    10    11    2
    11    10    12    2
    12    10    13    1
    13    13    14   ar
    14    14    15   ar
    15    15    16   ar
    16    16    17   ar
    17    17    18   ar
    18     3     4   ar
    19     4     5   ar
    20     5     6   ar
    21     6     7   ar
    22     7     8   ar
    23     8     9   ar
    24    24    25    1
    25    25    26    1
    26    26    21    1
    27     9     1   ar
    28    18    13   ar
    29     9     4   ar
@<TRIPOS>MOLECULE
*****
 26 29 0 0 0
SMALL
GASTEIGER

@<TRIPOS>ATOM
      1 C          63.9297   89.4586   13.4536 C.ar    1  UNL1        0.0143
      2 C          63.0642   89.6352   12.2413 C.ar    1  UNL1        0.0970
      3 N          62.6140   88.2770   11.7914 N.ar    1  UNL1       -0.2080
      4 C          63.2013   87.2609   12.7257 C.ar    1  UNL1        0.0823
      5 C          63.1006   85.7651   12.7736 C.ar    1  UNL1        0.0189
      6 C          63.8131   84.9996   13.8489 C.ar    1  UNL1        0.0015
      7 C          64.6263   85.7299   14.8762 C.ar    1  UNL1        0.0001
      8 C          64.7270   87.2257   14.8282 C.ar    1  UNL1        0.0013
      9 C          64.0144   87.9912   13.7530 C.ar    1  UNL1        0.0163
     10 S          61.7314   87.9858   10.6140 S.O2    1  UNL1        0.0860
     11 O          62.7996   88.4888    9.6889 O.2     1  UNL1       -0.1476
     12 O          60.6632   87.4828   11.5391 O.2     1  UNL1       -0.1476
     13 C          60.8488   87.6946    9.4366 C.ar    1  UNL1        0.1277
     14 C          60.6924   86.2856    8.9467 C.ar    1  UNL1        0.0204
     15 C          59.8098   85.9945    7.7694 C.ar    1  UNL1        0.0014
     16 C          59.0835   87.1125    7.0818 C.ar    1  UNL1        0.0001
     17 C          59.2399   88.5216    7.5717 C.ar    1  UNL1        0.0014
     18 C          60.1226   88.8126    8.7491 C.ar    1  UNL1        0.0204
     19 C          64.5940   90.5566   14.2303 C.3     1  UNL1        0.1008
     20 C          66.6758   95.4100   11.3823 C.3     1  UNL1        0.0897
     21 N          66.1554   94.1966   12.0942 N.3     1  UNL1       -0.2691
     22 C          66.4855   93.9767   13.5408 C.3     1  UNL1        0.0897
     23 C          65.9651   92.7634   14.2528 C.3     1  UNL1        0.0899
     24 N          65.1145   91.7700   13.5182 N.3     1  UNL1       -0.2665
     25 C          64.7843   91.9900   12.0717 C.3     1  UNL1        0.0899
     26 C          65.3047   93.2032   11.3596 C.3     1  UNL1        0.0897
@<TRIPOS>BOND
     1    20    21    1
     2    21    22    1
     3    22    23    1
     4    23    24    1
     5    24    19    1
     6    19     1    1
     7     1     2   ar
     8     2     3   ar
     9     3    10    1
    10    10    11    2
    11    10    12    2
    12    10    13    1
    13    13    14   ar
    14    14    15   ar
    15    15    16   ar
    16    16    17   ar
    17    17    18   ar
    18     3     4   ar
    19     4     5   ar
    20     5     6   ar
    21     6     7   ar
    22     7     8   ar
    23     8     9   ar
    24    24    25    1
    25    25    26    1
    26    26    21    1
    27     9     1   ar
    28    18    13   ar
    29     9     4   ar
@<TRIPOS>MOLECULE
*****
 26 29 0 0 0
SMALL
GASTEIGER

@<TRIPOS>ATOM
      1 C          65.3645   92.2602   12.6709 C.ar    1  UNL1        0.0143
      2 C          64.6863   91.6319   11.4897 C.ar    1  UNL1        0.0970
      3 N          63.6795   90.6459   12.0036 N.ar    1  UNL1       -0.2080
      4 C          63.7355   90.6647   13.5025 C.ar    1  UNL1        0.0823
      5 C          62.9728   89.9023   14.5450 C.ar    1  UNL1        0.0189
      6 C          63.2514   90.1376   15.9999 C.ar    1  UNL1        0.0015
      7 C          64.2928   91.1353   16.4124 C.ar    1  UNL1        0.0001
      8 C          65.0555   91.8977   15.3698 C.ar    1  UNL1        0.0013
      9 C          64.7769   91.6624   13.9149 C.ar    1  UNL1        0.0163
     10 S          62.7755   89.7910   11.1658 S.O2    1  UNL1        0.0860
     11 O          63.1939   88.5817   11.9481 O.2     1  UNL1       -0.1476
     12 O          62.3570   91.0004   10.3834 O.2     1  UNL1       -0.1476
     13 C          61.8714   88.9362   10.3279 C.ar    1  UNL1        0.1277
     14 C          62.0204   87.4438   10.3468 C.ar    1  UNL1        0.0204
     15 C          61.1164   86.5891    9.5089 C.ar    1  UNL1        0.0014
     16 C          60.0631   87.2268    8.6521 C.ar    1  UNL1        0.0001
     17 C          59.9141   88.7193    8.6332 C.ar    1  UNL1        0.0014
     18 C          60.8182   89.5740    9.4711 C.ar    1  UNL1        0.0204
     19 C          66.4413   93.3031   12.6176 C.3     1  UNL1        0.1008
     20 C          66.9412   96.8559    7.8084 C.3     1  UNL1        0.0897
     21 N          66.8162   95.9677    9.0107 N.3     1  UNL1       -0.2691
     22 C          67.2743   94.5411    8.9402 C.3     1  UNL1        0.0897
     23 C          67.1494   93.6529   10.1424 C.3     1  UNL1        0.0899
     24 N          66.5662   94.1913   11.4153 N.3     1  UNL1       -0.2665
     25 C          66.1081   95.6179   11.4858 C.3     1  UNL1        0.0899
     26 C          66.2331   96.5061   10.2836 C.3     1  UNL1        0.0897
@<TRIPOS>BOND
     1    20    21    1
     2    21    22    1
     3    22    23    1
     4    23    24    1
     5    24    19    1
     6    19     1    1
     7     1     2   ar
     8     2     3   ar
     9     3    10    1
    10    10    11    2
    11    10    12    2
    12    10    13    1
    13    13    14   ar
    14    14    15   ar
    15    15    16   ar
    16    16    17   ar
    17    17    18   ar
    18     3     4   ar
    19     4     5   ar
    20     5     6   ar
    21     6     7   ar
    22     7     8   ar
    23     8     9   ar
    24    24    25    1
    25    25    26    1
    26    26    21    1
    27     9     1   ar
    28    18    13   ar
    29     9     4   ar
@<TRIPOS>MOLECULE
*****
 26 29 0 0 0
SMALL
GASTEIGER

@<TRIPOS>ATOM
      1 C          63.5462   86.2865   13.3581 C.ar    1  UNL1        0.0143
      2 C          62.6359   86.0949   12.1814 C.ar    1  UNL1        0.0970
      3 N          62.3387   87.4456   11.6006 N.ar    1  UNL1       -0.2080
      4 C          63.0653   88.4719   12.4183 C.ar    1  UNL1        0.0823
      5 C          63.1438   89.9662   12.3141 C.ar    1  UNL1        0.0189
      6 C          63.9686   90.7441   13.2961 C.ar    1  UNL1        0.0015
      7 C          64.7150   90.0278   14.3823 C.ar    1  UNL1        0.0001
      8 C          64.6365   88.5335   14.4865 C.ar    1  UNL1        0.0013
      9 C          63.8116   87.7556   13.5045 C.ar    1  UNL1        0.0163
     10 S          61.4677   87.7215   10.4109 S.O2    1  UNL1        0.0860
     11 O          62.6134   87.4002    9.4977 O.2     1  UNL1       -0.1476
     12 O          60.3220   88.0428   11.3242 O.2     1  UNL1       -0.1476
     13 C          60.5967   87.9974    9.2213 C.ar    1  UNL1        0.1277
     14 C          59.8690   86.8722    8.5473 C.ar    1  UNL1        0.0204
     15 C          58.9981   87.1481    7.3577 C.ar    1  UNL1        0.0014
     16 C          58.8547   88.5494    6.8421 C.ar    1  UNL1        0.0001
     17 C          59.5823   89.6747    7.5160 C.ar    1  UNL1        0.0014
     18 C          60.4534   89.3987    8.7057 C.ar    1  UNL1        0.0204
     19 C          64.0949   85.1998   14.2345 C.3     1  UNL1        0.1008
     20 C          62.3236   79.5227   13.4389 C.3     1  UNL1        0.0897
     21 N          62.7664   80.9420   13.6378 N.3     1  UNL1       -0.2691
     22 C          61.9796   81.8550   14.5307 C.3     1  UNL1        0.0897
     23 C          62.4224   83.2742   14.7297 C.3     1  UNL1        0.0899
     24 N          63.6520   83.7805   14.0356 N.3     1  UNL1       -0.2665
     25 C          64.4388   82.8675   13.1427 C.3     1  UNL1        0.0899
     26 C          63.9961   81.4483   12.9437 C.3     1  UNL1        0.0897
@<TRIPOS>BOND
     1    20    21    1
     2    21    22    1
     3    22    23    1
     4    23    24    1
     5    24    19    1
     6    19     1    1
     7     1     2   ar
     8     2     3   ar
     9     3    10    1
    10    10    11    2
    11    10    12    2
    12    10    13    1
    13    13    14   ar
    14    14    15   ar
    15    15    16   ar
    16    16    17   ar
    17    17    18   ar
    18     3     4   ar
    19     4     5   ar
    20     5     6   ar
    21     6     7   ar
    22     7     8   ar
    23     8     9   ar
    24    24    25    1
    25    25    26    1
    26    26    21    1
    27     9     1   ar
    28    18    13   ar
    29     9     4   ar
@<TRIPOS>MOLECULE
*****
 26 29 0 0 0
SMALL
GASTEIGER

@<TRIPOS>ATOM
      1 C          63.8857   90.4545   14.0862 C.ar    1  UNL1        0.0143
      2 C          64.8676   91.5381   13.7518 C.ar    1  UNL1        0.0970
      3 N          64.6617   91.9235   12.3169 N.ar    1  UNL1       -0.2080
      4 C          63.5526   91.0781   11.7644 C.ar    1  UNL1        0.0823
      5 C          62.9174   91.0177   10.4069 C.ar    1  UNL1        0.0189
      6 C          61.8026   90.0495   10.1429 C.ar    1  UNL1        0.0015
      7 C          61.3230   89.1416   11.2364 C.ar    1  UNL1        0.0001
      8 C          61.9582   89.2019   12.5939 C.ar    1  UNL1        0.0013
      9 C          63.0730   90.1702   12.8579 C.ar    1  UNL1        0.0163
     10 S          65.4300   92.9705   11.5661 S.O2    1  UNL1        0.0860
     11 O          65.6986   93.6951   12.8516 O.2     1  UNL1       -0.1476
     12 O          65.1614   92.2458   10.2806 O.2     1  UNL1       -0.1476
     13 C          66.1982   94.0174   10.8153 C.ar    1  UNL1        0.1277
     14 C          66.0008   95.4688   11.1386 C.ar    1  UNL1        0.0204
     15 C          66.7691   96.5156   10.3878 C.ar    1  UNL1        0.0014
     16 C          67.7349   96.1111    9.3136 C.ar    1  UNL1        0.0001
     17 C          67.9323   94.6598    8.9903 C.ar    1  UNL1        0.0014
     18 C          67.1640   93.6129    9.7412 C.ar    1  UNL1        0.0204
     19 C          63.7419   89.7746   15.4154 C.3     1  UNL1        0.1008
     20 C          63.7741   83.7834   15.7396 C.3     1  UNL1        0.0897
     21 N          63.7661   85.2812   15.6585 N.3     1  UNL1       -0.2691
     22 C          63.1347   86.0882   16.7540 C.3     1  UNL1        0.0897
     23 C          63.1266   87.5859   16.6730 C.3     1  UNL1        0.0899
     24 N          63.7499   88.2767   15.4965 N.3     1  UNL1       -0.2665
     25 C          64.3813   87.4697   14.4010 C.3     1  UNL1        0.0899
     26 C          64.3894   85.9720   14.4820 C.3     1  UNL1        0.0897
@<TRIPOS>BOND
     1    20    21    1
     2    21    22    1
     3    22    23    1
     4    23    24    1
     5    24    19    1
     6    19     1    1
     7     1     2   ar
     8     2     3   ar
     9     3    10    1
    10    10    11    2
    11    10    12    2
    12    10    13    1
    13    13    14   ar
    14    14    15   ar
    15    15    16   ar
    16    16    17   ar
    17    17    18   ar
    18     3     4   ar
    19     4     5   ar
    20     5     6   ar
    21     6     7   ar
    22     7     8   ar
    23     8     9   ar
    24    24    25    1
    25    25    26    1
    26    26    21    1
    27     9     1   ar
    28    18    13   ar
    29     9     4   ar
@<TRIPOS>MOLECULE
*****
 26 29 0 0 0
SMALL
GASTEIGER

@<TRIPOS>ATOM
      1 C          59.9142   88.5756    8.0646 C.ar    1  UNL1        0.0143
      2 C          60.4537   89.3767    9.2123 C.ar    1  UNL1        0.0970
      3 N          61.5602   88.5884    9.8481 N.ar    1  UNL1       -0.2080
      4 C          61.7046   87.3002    9.0934 C.ar    1  UNL1        0.0823
      5 C          62.6310   86.1334    9.2674 C.ar    1  UNL1        0.0189
      6 C          62.5400   84.9586    8.3392 C.ar    1  UNL1        0.0015
      7 C          61.5227   84.9507    7.2369 C.ar    1  UNL1        0.0001
      8 C          60.5964   86.1175    7.0628 C.ar    1  UNL1        0.0013
      9 C          60.6873   87.2923    7.9911 C.ar    1  UNL1        0.0163
     10 S          62.3787   89.0137   11.0310 S.O2    1  UNL1        0.0860
     11 O          61.7230   87.9540   11.8657 O.2     1  UNL1       -0.1476
     12 O          63.0345   90.0735   10.1962 O.2     1  UNL1       -0.1476
     13 C          63.1973   89.4391   12.2139 C.ar    1  UNL1        0.1277
     14 C          63.6255   90.8697   12.3542 C.ar    1  UNL1        0.0204
     15 C          64.4440   91.2950   13.5370 C.ar    1  UNL1        0.0014
     16 C          64.8343   90.2896   14.5796 C.ar    1  UNL1        0.0001
     17 C          64.4060   88.8589   14.4392 C.ar    1  UNL1        0.0014
     18 C          63.5875   88.4336   13.2564 C.ar    1  UNL1        0.0204
     19 C          58.7977   88.9858    7.1508 C.3     1  UNL1        0.1008
     20 C          59.7429   93.1590    2.9447 C.3     1  UNL1        0.0897
     21 N          59.5065   92.1157    3.9962 N.3     1  UNL1       -0.2691
     22 C          60.6601   91.3302    4.5460 C.3     1  UNL1        0.0897
     23 C          60.4239   90.2869    5.5975 C.3     1  UNL1        0.0899
     24 N          59.0340   90.0292    6.0992 N.3     1  UNL1       -0.2665
     25 C          57.8804   90.8147    5.5495 C.3     1  UNL1        0.0899
     26 C          58.1166   91.8579    4.4980 C.3     1  UNL1        0.0897
@<TRIPOS>BOND
     1    20    21    1
     2    21    22    1
     3    22    23    1
     4    23    24    1
     5    24    19    1
     6    19     1    1
     7     1     2   ar
     8     2     3   ar
     9     3    10    1
    10    10    11    2
    11    10    12    2
    12    10    13    1
    13    13    14   ar
    14    14    15   ar
    15    15    16   ar
    16    16    17   ar
    17    17    18   ar
    18     3     4   ar
    19     4     5   ar
    20     5     6   ar
    21     6     7   ar
    22     7     8   ar
    23     8     9   ar
    24    24    25    1
    25    25    26    1
    26    26    21    1
    27     9     1   ar
    28    18    13   ar
    29     9     4   ar
@<TRIPOS>MOLECULE
*****
 26 29 0 0 0
SMALL
GASTEIGER

@<TRIPOS>ATOM
      1 C          63.8712   88.9692   14.7764 C.ar    1  UNL1        0.0143
      2 C          63.9964   88.0591   13.5907 C.ar    1  UNL1        0.0970
      3 N          63.6593   86.6673   14.0371 N.ar    1  UNL1       -0.2080
      4 C          63.3258   86.7172   15.4987 C.ar    1  UNL1        0.0823
      5 C          62.9199   85.6510   16.4725 C.ar    1  UNL1        0.0189
      6 C          62.6448   86.0075   17.9033 C.ar    1  UNL1        0.0015
      7 C          62.7758   87.4302   18.3602 C.ar    1  UNL1        0.0001
      8 C          63.1817   88.4964   17.3864 C.ar    1  UNL1        0.0013
      9 C          63.4568   88.1399   15.9556 C.ar    1  UNL1        0.0163
     10 S          63.6563   85.4408   13.1735 S.O2    1  UNL1        0.0860
     11 O          64.7843   84.8698   13.9804 O.2     1  UNL1       -0.1476
     12 O          62.5282   86.0118   12.3664 O.2     1  UNL1       -0.1476
     13 C          63.6532   84.2143   12.3098 C.ar    1  UNL1        0.1277
     14 C          63.3749   82.8708   12.9160 C.ar    1  UNL1        0.0204
     15 C          63.3718   81.6445   12.0523 C.ar    1  UNL1        0.0014
     16 C          63.6470   81.7616   10.5824 C.ar    1  UNL1        0.0001
     17 C          63.9253   83.1051    9.9762 C.ar    1  UNL1        0.0014
     18 C          63.9284   84.3315   10.8399 C.ar    1  UNL1        0.0204
     19 C          64.1172   90.4489   14.7820 C.3     1  UNL1        0.1008
     20 C          66.8488   93.0534   10.1178 C.3     1  UNL1        0.0897
     21 N          66.1659   92.4023   11.2838 N.3     1  UNL1       -0.2691
     22 C          66.9080   92.2032   12.5721 C.3     1  UNL1        0.0897
     23 C          66.2252   91.5521   13.7381 C.3     1  UNL1        0.0899
     24 N          64.8002   91.1000   13.6159 N.3     1  UNL1       -0.2665
     25 C          64.0580   91.2991   12.3276 C.3     1  UNL1        0.0899
     26 C          64.7409   91.9503   11.1616 C.3     1  UNL1        0.0897
@<TRIPOS>BOND
     1    20    21    1
     2    21    22    1
     3    22    23    1
     4    23    24    1
     5    24    19    1
     6    19     1    1
     7     1     2   ar
     8     2     3   ar
     9     3    10    1
    10    10    11    2
    11    10    12    2
    12    10    13    1
    13    13    14   ar
    14    14    15   ar
    15    15    16   ar
    16    16    17   ar
    17    17    18   ar
    18     3     4   ar
    19     4     5   ar
    20     5     6   ar
    21     6     7   ar
    22     7     8   ar
    23     8     9   ar
    24    24    25    1
    25    25    26    1
    26    26    21    1
    27     9     1   ar
    28    18    13   ar
    29     9     4   ar
@<TRIPOS>MOLECULE
*****
 26 29 0 0 0
SMALL
GASTEIGER

@<TRIPOS>ATOM
      1 C          63.2136   84.8803   12.9153 C.ar    1  UNL1        0.0143
      2 C          62.3490   85.0498   11.7013 C.ar    1  UNL1        0.0970
      3 N          62.2025   86.5193   11.4382 N.ar    1  UNL1       -0.2080
      4 C          62.9766   87.2579   12.4894 C.ar    1  UNL1        0.0823
      5 C          63.1931   88.7220   12.7333 C.ar    1  UNL1        0.0189
      6 C          64.0346   89.1732   13.8902 C.ar    1  UNL1        0.0015
      7 C          64.6595   88.1602   14.8031 C.ar    1  UNL1        0.0001
      8 C          64.4429   86.6962   14.5592 C.ar    1  UNL1        0.0013
      9 C          63.6015   86.2450   13.4024 C.ar    1  UNL1        0.0163
     10 S          61.4194   87.1409   10.3200 S.O2    1  UNL1        0.0860
     11 O          60.4072   87.6416   11.3072 O.2     1  UNL1       -0.1476
     12 O          62.4316   86.6403    9.3327 O.2     1  UNL1       -0.1476
     13 C          60.6363   87.7626    9.2017 C.ar    1  UNL1        0.1277
     14 C          60.6554   89.2500    9.0091 C.ar    1  UNL1        0.0204
     15 C          59.8724   89.8716    7.8909 C.ar    1  UNL1        0.0014
     16 C          59.0702   89.0057    6.9652 C.ar    1  UNL1        0.0001
     17 C          59.0511   87.5183    7.1579 C.ar    1  UNL1        0.0014
     18 C          59.8342   86.8967    8.2761 C.ar    1  UNL1        0.0204
     19 C          63.6192   83.5753   13.5337 C.3     1  UNL1        0.1008
     20 C          62.6460   78.4338   10.5980 C.3     1  UNL1        0.0897
     21 N          62.8893   79.7191   11.3319 N.3     1  UNL1       -0.2691
     22 C          63.4231   80.9129   10.5971 C.3     1  UNL1        0.0897
     23 C          63.6664   82.1983   11.3309 C.3     1  UNL1        0.0899
     24 N          63.3759   82.2898   12.7997 N.3     1  UNL1       -0.2665
     25 C          62.8421   81.0961   13.5345 C.3     1  UNL1        0.0899
     26 C          62.5988   79.8107   12.8007 C.3     1  UNL1        0.0897
@<TRIPOS>BOND
     1    20    21    1
     2    21    22    1
     3    22    23    1
     4    23    24    1
     5    24    19    1
     6    19     1    1
     7     1     2   ar
     8     2     3   ar
     9     3    10    1
    10    10    11    2
    11    10    12    2
    12    10    13    1
    13    13    14   ar
    14    14    15   ar
    15    15    16   ar
    16    16    17   ar
    17    17    18   ar
    18     3     4   ar
    19     4     5   ar
    20     5     6   ar
    21     6     7   ar
    22     7     8   ar
    23     8     9   ar
    24    24    25    1
    25    25    26    1
    26    26    21    1
    27     9     1   ar
    28    18    13   ar
    29     9     4   ar
