@<TRIPOS>MOLECULE
*****
 34 37 0 0 0
SMALL
GASTEIGER

@<TRIPOS>ATOM
      1 C          63.8429   90.4352   15.4619 C.3     1  UNL1        0.1116
      2 C          64.1773   91.0528   14.1364 C.2     1  UNL1        0.2301
      3 O          65.4025   91.9065   13.9946 O.2     1  UNL1       -0.2745
      4 N          63.2866   90.8166   12.9529 N.am    1  UNL1       -0.2792
      5 C          63.6209   91.4342   11.6275 C.3     1  UNL1        0.0951
      6 C          62.7301   91.1980   10.4440 C.3     1  UNL1        0.0410
      7 C          61.5050   90.3442   10.5859 C.3     1  UNL1        0.0724
      8 C          61.1706   89.7266   11.9113 C.3     1  UNL1        0.0410
      9 C          62.0614   89.9628   13.0949 C.3     1  UNL1        0.0951
     10 N          60.6142   90.1081    9.4023 N.pl3   1  UNL1       -0.3339
     11 H          60.1015   90.8542    9.0155 H       1  UNL1        0.1468
     12 C          60.5047   88.7351    8.8082 C.ar    1  UNL1        0.0447
     13 C          61.4834   87.6681    9.2001 C.ar    1  UNL1        0.0166
     14 C          61.3739   86.2951    8.6059 C.ar    1  UNL1        0.0309
     15 C          60.2858   85.9892    7.6199 C.ar    1  UNL1        0.1402
     16 F          60.1762   84.6163    7.0257 F       1  UNL1       -0.2042
     17 C          59.3071   87.0563    7.2280 C.ar    1  UNL1        0.0309
     18 C          59.4166   88.4293    7.8221 C.ar    1  UNL1        0.0166
     19 C          63.7846   85.9576   15.9071 C.ar    1  UNL1       -0.0062
     20 C          64.5170   86.5877   14.7596 C.ar    1  UNL1       -0.0032
     21 C          64.5364   88.0803   14.6112 C.ar    1  UNL1       -0.0041
     22 C          63.8235   88.9426   15.6103 C.ar    1  UNL1       -0.0131
     23 C          63.0911   88.3125   16.7577 C.ar    1  UNL1       -0.0041
     24 C          63.0717   86.8200   16.9061 C.ar    1  UNL1       -0.0032
     25 C          63.7651   84.4651   16.0555 C.3     1  UNL1        0.0992
     26 C          60.7377   80.7651   14.0196 C.3     1  UNL1        0.0186
     27 C          61.8591   81.7510   13.8759 C.3     1  UNL1        0.0702
     28 C          62.2514   82.6151   15.0375 C.3     1  UNL1        0.0882
     29 N          63.3728   83.6010   14.8938 N.3     1  UNL1       -0.2666
     30 C          64.1018   83.7227   13.5886 C.3     1  UNL1        0.0882
     31 C          63.7094   82.8586   12.4270 C.3     1  UNL1        0.0702
     32 C          64.4384   82.9803   11.1216 C.3     1  UNL1        0.0186
     33 N          62.5880   81.8727   12.5706 N.3     1  UNL1       -0.2974
     34 H          62.9765   80.9527   12.3634 H       1  UNL1        0.1232
@<TRIPOS>BOND
     1    27    26    1
     2    27    28    1
     3    28    29    1
     4    29    25    1
     5    25    19    1
     6    19    20   ar
     7    20    21   ar
     8    21    22   ar
     9    22     1    1
    10     1     2    1
    11     2     3    2
    12     2     4   am
    13     4     5    1
    14     5     6    1
    15     6     7    1
    16     7    10    1
    17    10    12    1
    18    12    13   ar
    19    13    14   ar
    20    14    15   ar
    21    15    16    1
    22    15    17   ar
    23    17    18   ar
    24     7     8    1
    25     8     9    1
    26    22    23   ar
    27    23    24   ar
    28    29    30    1
    29    30    31    1
    30    31    32    1
    31    31    33    1
    32    33    27    1
    33    24    19   ar
    34     9     4    1
    35    18    12   ar
    36    10    11    1
    37    33    34    1
@<TRIPOS>MOLECULE
*****
 34 37 0 0 0
SMALL
GASTEIGER

@<TRIPOS>ATOM
      1 C          63.8803   90.4155   15.4583 C.3     1  UNL1        0.1116
      2 C          64.2098   91.0457   14.1375 C.2     1  UNL1        0.2301
      3 O          65.4299   91.9074   14.0012 O.2     1  UNL1       -0.2745
      4 N          63.3190   90.8141   12.9530 N.am    1  UNL1       -0.2792
      5 C          63.6484   91.4442   11.6323 C.3     1  UNL1        0.0951
      6 C          62.7577   91.2125   10.4478 C.3     1  UNL1        0.0410
      7 C          61.5375   90.3508   10.5841 C.3     1  UNL1        0.0724
      8 C          61.2081   89.7207   11.9049 C.3     1  UNL1        0.0410
      9 C          62.0988   89.9523   13.0894 C.3     1  UNL1        0.0951
     10 N          60.6468   90.1192    9.3996 N.pl3   1  UNL1       -0.3339
     11 H          60.1400   90.8684    9.0109 H       1  UNL1        0.1468
     12 C          60.5282   88.7462    8.8075 C.ar    1  UNL1        0.0447
     13 C          59.4427   88.4482    7.8161 C.ar    1  UNL1        0.0166
     14 C          59.3241   87.0751    7.2239 C.ar    1  UNL1        0.0309
     15 C          60.2910   86.0000    7.6232 C.ar    1  UNL1        0.1402
     16 F          60.1724   84.6270    7.0310 F       1  UNL1       -0.2042
     17 C          61.3766   86.2981    8.6146 C.ar    1  UNL1        0.0309
     18 C          61.4951   87.6711    9.2067 C.ar    1  UNL1        0.0166
     19 C          63.8373   85.9341   15.8647 C.ar    1  UNL1       -0.0062
     20 C          63.1156   86.7851   16.8672 C.ar    1  UNL1       -0.0032
     21 C          63.1299   88.2789   16.7318 C.ar    1  UNL1       -0.0041
     22 C          63.8660   88.9217   15.5937 C.ar    1  UNL1       -0.0131
     23 C          64.5877   88.0708   14.5913 C.ar    1  UNL1       -0.0041
     24 C          64.5734   86.5770   14.7268 C.ar    1  UNL1       -0.0032
     25 C          63.8230   84.4403   16.0002 C.3     1  UNL1        0.0992
     26 C          64.4057   82.9976   11.0424 C.3     1  UNL1        0.0186
     27 C          63.7009   82.8645   12.3598 C.3     1  UNL1        0.0702
     28 C          64.1143   83.7189   13.5213 C.3     1  UNL1        0.0882
     29 N          63.4095   83.5858   14.8387 N.3     1  UNL1       -0.2666
     30 C          62.2913   82.5983   14.9946 C.3     1  UNL1        0.0882
     31 C          61.8779   81.7439   13.8332 C.3     1  UNL1        0.0702
     32 C          60.7597   80.7563   13.9891 C.3     1  UNL1        0.0186
     33 N          62.5827   81.8770   12.5158 N.3     1  UNL1       -0.2974
     34 H          61.8732   82.1242   11.8259 H       1  UNL1        0.1232
@<TRIPOS>BOND
     1    27    26    1
     2    27    28    1
     3    28    29    1
     4    29    25    1
     5    25    19    1
     6    19    20   ar
     7    20    21   ar
     8    21    22   ar
     9    22     1    1
    10     1     2    1
    11     2     3    2
    12     2     4   am
    13     4     5    1
    14     5     6    1
    15     6     7    1
    16     7    10    1
    17    10    12    1
    18    12    13   ar
    19    13    14   ar
    20    14    15   ar
    21    15    16    1
    22    15    17   ar
    23    17    18   ar
    24     7     8    1
    25     8     9    1
    26    22    23   ar
    27    23    24   ar
    28    29    30    1
    29    30    31    1
    30    31    32    1
    31    31    33    1
    32    33    27    1
    33    24    19   ar
    34     9     4    1
    35    18    12   ar
    36    10    11    1
    37    33    34    1
@<TRIPOS>MOLECULE
*****
 34 37 0 0 0
SMALL
GASTEIGER

@<TRIPOS>ATOM
      1 C          60.6110   89.3476   10.5847 C.3     1  UNL1        0.1116
      2 C          60.7192   88.4117    9.4175 C.2     1  UNL1        0.2301
      3 O          60.0281   88.7391    8.1271 O.2     1  UNL1       -0.2745
      4 N          61.5185   87.1484    9.5407 N.am    1  UNL1       -0.2792
      5 C          61.6267   86.2125    8.3735 C.3     1  UNL1        0.0951
      6 C          62.4259   84.9492    8.4967 C.3     1  UNL1        0.0410
      7 C          63.1170   84.6217    9.7871 C.3     1  UNL1        0.0724
      8 C          63.0088   85.5576   10.9544 C.3     1  UNL1        0.0410
      9 C          62.2096   86.8209   10.8311 C.3     1  UNL1        0.0951
     10 N          63.9163   83.3584    9.9103 N.pl3   1  UNL1       -0.3339
     11 H          64.7019   83.2148    9.3346 H       1  UNL1        0.1468
     12 C          63.5185   82.3138   10.9105 C.ar    1  UNL1        0.0447
     13 C          63.5016   82.6442   12.3735 C.ar    1  UNL1        0.0166
     14 C          63.1038   81.5995   13.3738 C.ar    1  UNL1        0.0309
     15 C          62.7229   80.2245   12.9110 C.ar    1  UNL1        0.1402
     16 F          62.3251   79.1799   13.9113 F       1  UNL1       -0.2042
     17 C          62.7398   79.8941   11.4479 C.ar    1  UNL1        0.0309
     18 C          63.1376   80.9387   10.4477 C.ar    1  UNL1        0.0166
     19 C          64.2264   91.6384   11.9744 C.ar    1  UNL1       -0.0062
     20 C          63.4248   90.8351   12.9554 C.ar    1  UNL1       -0.0032
     21 C          62.2197   90.0715   12.4922 C.ar    1  UNL1       -0.0041
     22 C          61.8162   90.1112   11.0480 C.ar    1  UNL1       -0.0131
     23 C          62.6177   90.9145   10.0671 C.ar    1  UNL1       -0.0041
     24 C          63.8229   91.6780   10.5303 C.ar    1  UNL1       -0.0032
     25 C          65.4315   92.4019   12.4377 C.3     1  UNL1        0.0992
     26 C          69.0726   92.3751    8.7307 C.3     1  UNL1        0.0186
     27 C          68.1000   93.1263    9.5908 C.3     1  UNL1        0.0702
     28 C          67.2521   92.3886   10.5842 C.3     1  UNL1        0.0882
     29 N          66.2795   93.1397   11.4442 N.3     1  UNL1       -0.2666
     30 C          66.1547   94.6285   11.3110 C.3     1  UNL1        0.0882
     31 C          67.0026   95.3662   10.3176 C.3     1  UNL1        0.0702
     32 C          66.8778   96.8551   10.1842 C.3     1  UNL1        0.0186
     33 N          67.9752   94.6151    9.4575 N.3     1  UNL1       -0.2974
     34 H          68.8982   95.0060    9.6463 H       1  UNL1        0.1232
@<TRIPOS>BOND
     1    27    26    1
     2    27    28    1
     3    28    29    1
     4    29    25    1
     5    25    19    1
     6    19    20   ar
     7    20    21   ar
     8    21    22   ar
     9    22     1    1
    10     1     2    1
    11     2     3    2
    12     2     4   am
    13     4     5    1
    14     5     6    1
    15     6     7    1
    16     7    10    1
    17    10    12    1
    18    12    13   ar
    19    13    14   ar
    20    14    15   ar
    21    15    16    1
    22    15    17   ar
    23    17    18   ar
    24     7     8    1
    25     8     9    1
    26    22    23   ar
    27    23    24   ar
    28    29    30    1
    29    30    31    1
    30    31    32    1
    31    31    33    1
    32    33    27    1
    33    24    19   ar
    34     9     4    1
    35    18    12   ar
    36    10    11    1
    37    33    34    1
@<TRIPOS>MOLECULE
*****
 34 37 0 0 0
SMALL
GASTEIGER

@<TRIPOS>ATOM
      1 C          60.5704   89.3529   10.5923 C.3     1  UNL1        0.1116
      2 C          60.6730   88.4248    9.4183 C.2     1  UNL1        0.2301
      3 O          59.9742   88.7600    8.1340 O.2     1  UNL1       -0.2745
      4 N          61.4743   87.1616    9.5286 N.am    1  UNL1       -0.2792
      5 C          61.5770   86.2336    8.3547 C.3     1  UNL1        0.0951
      6 C          62.3784   84.9704    8.4650 C.3     1  UNL1        0.0410
      7 C          63.0771   84.6353    9.7493 C.3     1  UNL1        0.0724
      8 C          62.9745   85.5634   10.9233 C.3     1  UNL1        0.0410
      9 C          62.1731   86.8265   10.8130 C.3     1  UNL1        0.0951
     10 N          63.8785   83.3721    9.8596 N.pl3   1  UNL1       -0.3339
     11 H          64.6511   83.2260    9.2672 H       1  UNL1        0.1468
     12 C          63.5028   82.3316   10.8725 C.ar    1  UNL1        0.0447
     13 C          63.1317   80.9489   10.4250 C.ar    1  UNL1        0.0166
     14 C          62.7559   79.9083   11.4380 C.ar    1  UNL1        0.0309
     15 C          62.7512   80.2505   12.8984 C.ar    1  UNL1        0.1402
     16 F          62.3755   79.2099   13.9113 F       1  UNL1       -0.2042
     17 C          63.1223   81.6333   13.3459 C.ar    1  UNL1        0.0309
     18 C          63.4981   82.6738   12.3330 C.ar    1  UNL1        0.0166
     19 C          64.1983   91.6154   11.9955 C.ar    1  UNL1       -0.0062
     20 C          63.3599   90.8567   12.9813 C.ar    1  UNL1       -0.0032
     21 C          62.1506   90.1025   12.5135 C.ar    1  UNL1       -0.0041
     22 C          61.7797   90.1071   11.0600 C.ar    1  UNL1       -0.0131
     23 C          62.6180   90.8658   10.0744 C.ar    1  UNL1       -0.0041
     24 C          63.8273   91.6199   10.5422 C.ar    1  UNL1       -0.0032
     25 C          65.4076   92.3696   12.4633 C.3     1  UNL1        0.0992
     26 C          66.8381   96.8560   10.2665 C.3     1  UNL1        0.0186
     27 C          66.9653   95.3656   10.3781 C.3     1  UNL1        0.0702
     28 C          66.1229   94.6128   11.3648 C.3     1  UNL1        0.0882
     29 N          66.2501   93.1224   11.4765 N.3     1  UNL1       -0.2666
     30 C          67.2197   92.3847   10.6015 C.3     1  UNL1        0.0882
     31 C          68.0621   93.1375    9.6148 C.3     1  UNL1        0.0702
     32 C          69.0318   92.3998    8.7397 C.3     1  UNL1        0.0186
     33 N          67.9349   94.6279    9.5031 N.3     1  UNL1       -0.2974
     34 H          67.6730   94.8296    8.5382 H       1  UNL1        0.1232
@<TRIPOS>BOND
     1    27    26    1
     2    27    28    1
     3    28    29    1
     4    29    25    1
     5    25    19    1
     6    19    20   ar
     7    20    21   ar
     8    21    22   ar
     9    22     1    1
    10     1     2    1
    11     2     3    2
    12     2     4   am
    13     4     5    1
    14     5     6    1
    15     6     7    1
    16     7    10    1
    17    10    12    1
    18    12    13   ar
    19    13    14   ar
    20    14    15   ar
    21    15    16    1
    22    15    17   ar
    23    17    18   ar
    24     7     8    1
    25     8     9    1
    26    22    23   ar
    27    23    24   ar
    28    29    30    1
    29    30    31    1
    30    31    32    1
    31    31    33    1
    32    33    27    1
    33    24    19   ar
    34     9     4    1
    35    18    12   ar
    36    10    11    1
    37    33    34    1
@<TRIPOS>MOLECULE
*****
 34 37 0 0 0
SMALL
GASTEIGER

@<TRIPOS>ATOM
      1 C          63.5737   89.5867   15.5288 C.3     1  UNL1        0.1116
      2 C          63.2563   90.2817   14.2379 C.2     1  UNL1        0.2301
      3 O          61.9258   90.0689   13.5789 O.2     1  UNL1       -0.2745
      4 N          64.2695   91.1896   13.6060 N.am    1  UNL1       -0.2792
      5 C          63.9522   91.8846   12.3152 C.3     1  UNL1        0.0951
      6 C          64.9654   92.7924   11.6834 C.3     1  UNL1        0.0410
      7 C          66.2960   93.0053   12.3424 C.3     1  UNL1        0.0724
      8 C          66.6134   92.3102   13.6332 C.3     1  UNL1        0.0410
      9 C          65.6001   91.4024   14.2651 C.3     1  UNL1        0.0951
     10 N          67.3092   93.9131   11.7105 N.pl3   1  UNL1       -0.3339
     11 H          68.1950   94.0261   12.1249 H       1  UNL1        0.1468
     12 C          66.9727   94.6487   10.4474 C.ar    1  UNL1        0.0447
     13 C          66.0935   95.8630   10.4982 C.ar    1  UNL1        0.0166
     14 C          65.7570   96.5987    9.2350 C.ar    1  UNL1        0.0309
     15 C          66.2996   96.1201    7.9211 C.ar    1  UNL1        0.1402
     16 F          65.9631   96.8557    6.6579 F       1  UNL1       -0.2042
     17 C          67.1788   94.9057    7.8703 C.ar    1  UNL1        0.0309
     18 C          67.5153   94.1701    9.1334 C.ar    1  UNL1        0.0166
     19 C          63.9125   85.1010   15.6448 C.ar    1  UNL1       -0.0062
     20 C          63.2919   85.8363   16.7956 C.ar    1  UNL1       -0.0032
     21 C          63.1790   87.3315   16.7570 C.ar    1  UNL1       -0.0041
     22 C          63.6867   88.0915   15.5675 C.ar    1  UNL1       -0.0131
     23 C          64.3072   87.3562   14.4168 C.ar    1  UNL1       -0.0041
     24 C          64.4201   85.8609   14.4554 C.ar    1  UNL1       -0.0032
     25 C          64.0254   83.6058   15.6835 C.3     1  UNL1        0.0992
     26 C          64.0787   81.9518   10.7579 C.3     1  UNL1        0.0186
     27 C          63.4531   81.9527   12.1212 C.3     1  UNL1        0.0702
     28 C          64.0520   82.7787   13.2207 C.3     1  UNL1        0.0882
     29 N          63.4264   82.7797   14.5840 N.3     1  UNL1       -0.2666
     30 C          62.2018   81.9546   14.8478 C.3     1  UNL1        0.0882
     31 C          61.6029   81.1286   13.7484 C.3     1  UNL1        0.0702
     32 C          60.3782   80.3035   14.0122 C.3     1  UNL1        0.0186
     33 N          62.2285   81.1276   12.3851 N.3     1  UNL1       -0.2974
     34 H          61.5124   81.4464   11.7323 H       1  UNL1        0.1232
@<TRIPOS>BOND
     1    27    26    1
     2    27    28    1
     3    28    29    1
     4    29    25    1
     5    25    19    1
     6    19    20   ar
     7    20    21   ar
     8    21    22   ar
     9    22     1    1
    10     1     2    1
    11     2     3    2
    12     2     4   am
    13     4     5    1
    14     5     6    1
    15     6     7    1
    16     7    10    1
    17    10    12    1
    18    12    13   ar
    19    13    14   ar
    20    14    15   ar
    21    15    16    1
    22    15    17   ar
    23    17    18   ar
    24     7     8    1
    25     8     9    1
    26    22    23   ar
    27    23    24   ar
    28    29    30    1
    29    30    31    1
    30    31    32    1
    31    31    33    1
    32    33    27    1
    33    24    19   ar
    34     9     4    1
    35    18    12   ar
    36    10    11    1
    37    33    34    1
@<TRIPOS>MOLECULE
*****
 34 37 0 0 0
SMALL
GASTEIGER

@<TRIPOS>ATOM
      1 C          63.3833   84.9899   15.9644 C.3     1  UNL1        0.1116
      2 C          63.9965   84.1032   14.9213 C.2     1  UNL1        0.2301
      3 O          64.9294   83.0012   15.3280 O.2     1  UNL1       -0.2745
      4 N          63.6769   84.3185   13.4717 N.am    1  UNL1       -0.2792
      5 C          64.2900   83.4319   12.4287 C.3     1  UNL1        0.0951
      6 C          63.9704   83.6473   10.9791 C.3     1  UNL1        0.0410
      7 C          63.0376   84.7492   10.5724 C.3     1  UNL1        0.0724
      8 C          62.4243   85.6359   11.6154 C.3     1  UNL1        0.0410
      9 C          62.7440   85.4206   13.0651 C.3     1  UNL1        0.0951
     10 N          62.7179   84.9646    9.1228 N.pl3   1  UNL1       -0.3339
     11 H          63.1834   84.4389    8.4327 H       1  UNL1        0.1468
     12 C          61.6890   85.9808    8.7246 C.ar    1  UNL1        0.0447
     13 C          61.7358   87.3628    9.3058 C.ar    1  UNL1        0.0166
     14 C          60.7069   88.3791    8.9076 C.ar    1  UNL1        0.0309
     15 C          59.6312   88.0134    7.9282 C.ar    1  UNL1        0.1402
     16 F          58.6024   89.0296    7.5299 F       1  UNL1       -0.2042
     17 C          59.5845   86.6313    7.3469 C.ar    1  UNL1        0.0309
     18 C          60.6134   85.6150    7.7452 C.ar    1  UNL1        0.0166
     19 C          63.8364   89.4572   15.6687 C.ar    1  UNL1       -0.0062
     20 C          63.0428   88.8565   16.7910 C.ar    1  UNL1       -0.0032
     21 C          62.8917   87.3674   16.8895 C.ar    1  UNL1       -0.0041
     22 C          63.5343   86.4790   15.8658 C.ar    1  UNL1       -0.0131
     23 C          64.3278   87.0797   14.7436 C.ar    1  UNL1       -0.0041
     24 C          64.4789   88.5689   14.6451 C.ar    1  UNL1       -0.0032
     25 C          63.9874   90.9464   15.5702 C.3     1  UNL1        0.0992
     26 C          68.8229   92.7841   15.0795 C.3     1  UNL1        0.0186
     27 C          67.4909   92.4543   14.4738 C.3     1  UNL1        0.0702
     28 C          66.4052   91.8653   15.3248 C.3     1  UNL1        0.0882
     29 N          65.0731   91.5354   14.7191 N.3     1  UNL1       -0.2666
     30 C          64.8268   91.7945   13.2624 C.3     1  UNL1        0.0882
     31 C          65.9125   92.3835   12.4114 C.3     1  UNL1        0.0702
     32 C          65.6663   92.6427   10.9545 C.3     1  UNL1        0.0186
     33 N          67.2446   92.7134   13.0171 N.3     1  UNL1       -0.2974
     34 H          67.3983   93.7102   12.8652 H       1  UNL1        0.1232
@<TRIPOS>BOND
     1    27    26    1
     2    27    28    1
     3    28    29    1
     4    29    25    1
     5    25    19    1
     6    19    20   ar
     7    20    21   ar
     8    21    22   ar
     9    22     1    1
    10     1     2    1
    11     2     3    2
    12     2     4   am
    13     4     5    1
    14     5     6    1
    15     6     7    1
    16     7    10    1
    17    10    12    1
    18    12    13   ar
    19    13    14   ar
    20    14    15   ar
    21    15    16    1
    22    15    17   ar
    23    17    18   ar
    24     7     8    1
    25     8     9    1
    26    22    23   ar
    27    23    24   ar
    28    29    30    1
    29    30    31    1
    30    31    32    1
    31    31    33    1
    32    33    27    1
    33    24    19   ar
    34     9     4    1
    35    18    12   ar
    36    10    11    1
    37    33    34    1
@<TRIPOS>MOLECULE
*****
 34 37 0 0 0
SMALL
GASTEIGER

@<TRIPOS>ATOM
      1 C          63.3824   84.9588   15.9705 C.3     1  UNL1        0.1116
      2 C          63.9992   84.0743   14.9277 C.2     1  UNL1        0.2301
      3 O          64.9360   82.9757   15.3346 O.2     1  UNL1       -0.2745
      4 N          63.6793   84.2885   13.4779 N.am    1  UNL1       -0.2792
      5 C          64.2960   83.4041   12.4351 C.3     1  UNL1        0.0951
      6 C          63.9761   83.6183   10.9854 C.3     1  UNL1        0.0410
      7 C          63.0393   84.7168   10.5784 C.3     1  UNL1        0.0724
      8 C          62.4225   85.6013   11.6212 C.3     1  UNL1        0.0410
      9 C          62.7425   85.3871   13.0710 C.3     1  UNL1        0.0951
     10 N          62.7194   84.9310    9.1287 N.pl3   1  UNL1       -0.3339
     11 H          63.1846   84.4047    8.4389 H       1  UNL1        0.1468
     12 C          61.6905   85.9470    8.7299 C.ar    1  UNL1        0.0447
     13 C          60.6055   85.5759    7.7630 C.ar    1  UNL1        0.0166
     14 C          59.5766   86.5920    7.3641 C.ar    1  UNL1        0.0309
     15 C          59.6328   87.9791    7.9322 C.ar    1  UNL1        0.1402
     16 F          58.6040   88.9952    7.5333 F       1  UNL1       -0.2042
     17 C          60.7180   88.3502    8.8990 C.ar    1  UNL1        0.0309
     18 C          61.7468   87.3342    9.2979 C.ar    1  UNL1        0.0166
     19 C          63.8282   89.4272   15.6807 C.ar    1  UNL1       -0.0062
     20 C          63.0395   88.8235   16.8048 C.ar    1  UNL1       -0.0032
     21 C          62.8909   87.3340   16.9014 C.ar    1  UNL1       -0.0041
     22 C          63.5310   86.4482   15.8739 C.ar    1  UNL1       -0.0131
     23 C          64.3197   87.0520   14.7498 C.ar    1  UNL1       -0.0041
     24 C          64.4683   88.5415   14.6532 C.ar    1  UNL1       -0.0032
     25 C          63.9768   90.9167   15.5841 C.3     1  UNL1        0.0992
     26 C          65.6862   92.6341   10.9875 C.3     1  UNL1        0.0186
     27 C          65.9233   92.3672   12.4444 C.3     1  UNL1        0.0702
     28 C          64.8316   91.7754   13.2857 C.3     1  UNL1        0.0882
     29 N          65.0686   91.5085   14.7427 N.3     1  UNL1       -0.2666
     30 C          66.3973   91.8334   15.3582 C.3     1  UNL1        0.0882
     31 C          67.4890   92.4252   14.5168 C.3     1  UNL1        0.0702
     32 C          68.8178   92.7501   15.1323 C.3     1  UNL1        0.0186
     33 N          67.2520   92.6921   13.0599 N.3     1  UNL1       -0.2974
     34 H          67.9531   92.1593   12.5451 H       1  UNL1        0.1232
@<TRIPOS>BOND
     1    27    26    1
     2    27    28    1
     3    28    29    1
     4    29    25    1
     5    25    19    1
     6    19    20   ar
     7    20    21   ar
     8    21    22   ar
     9    22     1    1
    10     1     2    1
    11     2     3    2
    12     2     4   am
    13     4     5    1
    14     5     6    1
    15     6     7    1
    16     7    10    1
    17    10    12    1
    18    12    13   ar
    19    13    14   ar
    20    14    15   ar
    21    15    16    1
    22    15    17   ar
    23    17    18   ar
    24     7     8    1
    25     8     9    1
    26    22    23   ar
    27    23    24   ar
    28    29    30    1
    29    30    31    1
    30    31    32    1
    31    31    33    1
    32    33    27    1
    33    24    19   ar
    34     9     4    1
    35    18    12   ar
    36    10    11    1
    37    33    34    1
@<TRIPOS>MOLECULE
*****
 34 37 0 0 0
SMALL
GASTEIGER

@<TRIPOS>ATOM
      1 C          64.1525   90.9359   14.8245 C.3     1  UNL1        0.1116
      2 C          63.6636   90.1570   16.0096 C.2     1  UNL1        0.2301
      3 O          63.1247   90.8772   17.2099 O.2     1  UNL1       -0.2745
      4 N          63.7138   88.6579   15.9943 N.am    1  UNL1       -0.2792
      5 C          63.2249   87.8791   17.1794 C.3     1  UNL1        0.0951
      6 C          63.2751   86.3800   17.1641 C.3     1  UNL1        0.0410
      7 C          63.8141   85.6598   15.9638 C.3     1  UNL1        0.0724
      8 C          64.3029   86.4386   14.7787 C.3     1  UNL1        0.0410
      9 C          64.2528   87.9377   14.7940 C.3     1  UNL1        0.0951
     10 N          63.8642   84.1607   15.9486 N.pl3   1  UNL1       -0.3339
     11 H          64.0710   83.6666   16.7746 H       1  UNL1        0.1468
     12 C          63.5992   83.4143   14.6747 C.ar    1  UNL1        0.0447
     13 C          62.3822   82.5459   14.5536 C.ar    1  UNL1        0.0166
     14 C          62.1172   81.7995   13.2797 C.ar    1  UNL1        0.0309
     15 C          63.0693   81.9216   12.1270 C.ar    1  UNL1        0.1402
     16 F          62.8044   81.1752   10.8532 F       1  UNL1       -0.2042
     17 C          64.2864   82.7900   12.2482 C.ar    1  UNL1        0.0309
     18 C          64.5513   83.5364   13.5220 C.ar    1  UNL1        0.0166
     19 C          62.3569   90.2144   10.7618 C.ar    1  UNL1       -0.0062
     20 C          63.6245   91.0060   10.8917 C.ar    1  UNL1       -0.0032
     21 C          64.2230   91.2464   12.2460 C.ar    1  UNL1       -0.0041
     22 C          63.5540   90.6954   13.4703 C.ar    1  UNL1       -0.0131
     23 C          62.2865   89.9039   13.3403 C.ar    1  UNL1       -0.0041
     24 C          61.6879   89.6634   11.9861 C.ar    1  UNL1       -0.0032
     25 C          61.7584   89.9739    9.4076 C.3     1  UNL1        0.0992
     26 C          63.0241   84.9738    8.7778 C.3     1  UNL1        0.0186
     27 C          62.0191   86.0825    8.6735 C.3     1  UNL1        0.0702
     28 C          62.3912   87.4738    9.0927 C.3     1  UNL1        0.0882
     29 N          61.3863   88.5825    8.9884 N.3     1  UNL1       -0.2666
     30 C          60.0093   88.2999    8.4650 C.3     1  UNL1        0.0882
     31 C          59.6372   86.9086    8.0458 C.3     1  UNL1        0.0702
     32 C          58.2602   86.6259    7.5224 C.3     1  UNL1        0.0186
     33 N          60.6422   85.7999    8.1501 N.3     1  UNL1       -0.2974
     34 H          60.7567   85.4171    7.2116 H       1  UNL1        0.1232
@<TRIPOS>BOND
     1    27    26    1
     2    27    28    1
     3    28    29    1
     4    29    25    1
     5    25    19    1
     6    19    20   ar
     7    20    21   ar
     8    21    22   ar
     9    22     1    1
    10     1     2    1
    11     2     3    2
    12     2     4   am
    13     4     5    1
    14     5     6    1
    15     6     7    1
    16     7    10    1
    17    10    12    1
    18    12    13   ar
    19    13    14   ar
    20    14    15   ar
    21    15    16    1
    22    15    17   ar
    23    17    18   ar
    24     7     8    1
    25     8     9    1
    26    22    23   ar
    27    23    24   ar
    28    29    30    1
    29    30    31    1
    30    31    32    1
    31    31    33    1
    32    33    27    1
    33    24    19   ar
    34     9     4    1
    35    18    12   ar
    36    10    11    1
    37    33    34    1
@<TRIPOS>MOLECULE
*****
 34 37 0 0 0
SMALL
GASTEIGER

@<TRIPOS>ATOM
      1 C          64.1743   90.9536   14.8313 C.3     1  UNL1        0.1116
      2 C          63.6799   90.1797   16.0174 C.2     1  UNL1        0.2301
      3 O          63.1482   90.9051   17.2177 O.2     1  UNL1       -0.2745
      4 N          63.7172   88.6802   16.0030 N.am    1  UNL1       -0.2792
      5 C          63.2229   87.9062   17.1889 C.3     1  UNL1        0.0951
      6 C          63.2602   86.4067   17.1745 C.3     1  UNL1        0.0410
      7 C          63.7919   85.6813   15.9741 C.3     1  UNL1        0.0724
      8 C          64.2863   86.4552   14.7881 C.3     1  UNL1        0.0410
      9 C          64.2490   87.9547   14.8025 C.3     1  UNL1        0.0951
     10 N          63.8292   84.1818   15.9597 N.pl3   1  UNL1       -0.3339
     11 H          64.0136   83.6860   16.7900 H       1  UNL1        0.1468
     12 C          63.5856   83.4378   14.6802 C.ar    1  UNL1        0.0447
     13 C          64.5694   83.5424   13.5528 C.ar    1  UNL1        0.0166
     14 C          64.3258   82.7984   12.2733 C.ar    1  UNL1        0.0309
     15 C          63.0984   81.9497   12.1213 C.ar    1  UNL1        0.1402
     16 F          62.8547   81.2057   10.8418 F       1  UNL1       -0.2042
     17 C          62.1145   81.8451   13.2488 C.ar    1  UNL1        0.0309
     18 C          62.3581   82.5891   14.5282 C.ar    1  UNL1        0.0166
     19 C          62.3795   90.2341   10.7680 C.ar    1  UNL1       -0.0062
     20 C          61.7137   89.6769   11.9913 C.ar    1  UNL1       -0.0032
     21 C          62.3120   89.9168   13.3458 C.ar    1  UNL1       -0.0041
     22 C          63.5760   90.7138   13.4769 C.ar    1  UNL1       -0.0131
     23 C          64.2417   91.2709   12.2536 C.ar    1  UNL1       -0.0041
     24 C          63.6434   91.0310   10.8992 C.ar    1  UNL1       -0.0032
     25 C          61.7812   89.9942    9.4135 C.3     1  UNL1        0.0992
     26 C          58.2679   86.6711    7.5125 C.3     1  UNL1        0.0186
     27 C          59.6428   86.9429    8.0472 C.3     1  UNL1        0.0702
     28 C          60.0246   88.3326    8.4630 C.3     1  UNL1        0.0882
     29 N          61.3994   88.6044    8.9977 N.3     1  UNL1       -0.2666
     30 C          62.3925   87.4866    9.1165 C.3     1  UNL1        0.0882
     31 C          62.0107   86.0969    8.7007 C.3     1  UNL1        0.0702
     32 C          63.0038   84.9790    8.8195 C.3     1  UNL1        0.0186
     33 N          60.6359   85.8251    8.1660 N.3     1  UNL1       -0.2974
     34 H          60.2167   85.1224    8.7750 H       1  UNL1        0.1232
@<TRIPOS>BOND
     1    27    26    1
     2    27    28    1
     3    28    29    1
     4    29    25    1
     5    25    19    1
     6    19    20   ar
     7    20    21   ar
     8    21    22   ar
     9    22     1    1
    10     1     2    1
    11     2     3    2
    12     2     4   am
    13     4     5    1
    14     5     6    1
    15     6     7    1
    16     7    10    1
    17    10    12    1
    18    12    13   ar
    19    13    14   ar
    20    14    15   ar
    21    15    16    1
    22    15    17   ar
    23    17    18   ar
    24     7     8    1
    25     8     9    1
    26    22    23   ar
    27    23    24   ar
    28    29    30    1
    29    30    31    1
    30    31    32    1
    31    31    33    1
    32    33    27    1
    33    24    19   ar
    34     9     4    1
    35    18    12   ar
    36    10    11    1
    37    33    34    1
