@<TRIPOS>MOLECULE
*****
 25 27 0 0 0
SMALL
GASTEIGER

@<TRIPOS>ATOM
      1 O          61.3460   89.4630    9.3983 O.2     1  UNL1       -0.2262
      2 C          61.8939   89.3165   10.7870 C.2     1  UNL1        0.4052
      3 N          62.9598   90.2521   11.2753 N.am    1  UNL1       -0.2460
      4 C          63.5077   90.1056   12.6639 C.3     1  UNL1        0.0968
      5 C          64.5735   91.0413   13.1522 C.3     1  UNL1        0.0234
      6 C          65.0915   92.1235   12.2518 C.3     1  UNL1        0.0230
      7 C          64.5436   92.2700   10.8632 C.3     1  UNL1        0.0234
      8 C          63.4777   91.3342   10.3749 C.3     1  UNL1        0.0968
      9 O          61.3759   88.2343   11.6874 O.3     1  UNL1       -0.4295
     10 C          60.8583   86.9544   11.1008 C.3     1  UNL1        0.2367
     11 C          61.8188   85.9070   10.6208 C.ar    1  UNL1        0.0213
     12 C          62.2872   85.9154    9.1959 C.ar    1  UNL1       -0.0007
     13 C          63.2477   84.8680    8.7159 C.ar    1  UNL1       -0.0002
     14 C          63.7397   83.8121    9.6609 C.ar    1  UNL1       -0.0000
     15 C          63.2714   83.8037   11.0858 C.ar    1  UNL1       -0.0002
     16 C          62.3109   84.8511   11.5658 C.ar    1  UNL1       -0.0007
     17 C          66.1574   93.0591   12.7401 C.3     1  UNL1        0.0882
     18 N          66.0636   94.5256   12.4389 N.pl3   1  UNL1       -0.3180
     19 H          65.7801   95.1551   13.1408 H       1  UNL1        0.1482
     20 C          66.4016   95.0329   11.0684 C.ar    1  UNL1        0.1318
     21 C          65.6691   96.2140   10.5042 C.ar    1  UNL1        0.0548
     22 C          66.0071   96.7214    9.1336 C.ar    1  UNL1        0.1035
     23 N          67.0776   96.0477    8.3274 N.ar    1  UNL1       -0.2223
     24 C          67.8101   94.8666    8.8917 C.ar    1  UNL1        0.2001
     25 N          67.4721   94.3592   10.2622 N.ar    1  UNL1       -0.2092
@<TRIPOS>BOND
     1     1     2    2
     2     2     9    1
     3     9    10    1
     4    10    11    1
     5    11    12   ar
     6    12    13   ar
     7    13    14   ar
     8    14    15   ar
     9    15    16   ar
    10     2     3   am
    11     3     4    1
    12     4     5    1
    13     5     6    1
    14     6    17    1
    15    17    18    1
    16    18    20    1
    17    20    21   ar
    18    21    22   ar
    19    22    23   ar
    20    23    24   ar
    21    24    25   ar
    22     6     7    1
    23     7     8    1
    24    16    11   ar
    25     8     3    1
    26    25    20   ar
    27    18    19    1
@<TRIPOS>MOLECULE
*****
 25 27 0 0 0
SMALL
GASTEIGER

@<TRIPOS>ATOM
      1 O          63.3967   82.9932   15.6514 O.2     1  UNL1       -0.2262
      2 C          63.9127   84.0697   14.7432 C.2     1  UNL1        0.4052
      3 N          63.8067   85.5093   15.1507 N.am    1  UNL1       -0.2460
      4 C          64.3228   86.5858   14.2424 C.3     1  UNL1        0.0968
      5 C          64.2168   88.0255   14.6499 C.3     1  UNL1        0.0234
      6 C          63.5948   88.3887   15.9657 C.3     1  UNL1        0.0230
      7 C          63.0787   87.3123   16.8739 C.3     1  UNL1        0.0234
      8 C          63.1847   85.8725   16.4664 C.3     1  UNL1        0.0968
      9 O          64.5347   83.7064   13.4274 O.3     1  UNL1       -0.4295
     10 C          63.6791   83.1816   12.3128 C.3     1  UNL1        0.2367
     11 C          63.1923   84.1102   11.2399 C.ar    1  UNL1        0.0213
     12 C          63.6852   83.9534    9.8319 C.ar    1  UNL1       -0.0007
     13 C          63.1984   84.8819    8.7592 C.ar    1  UNL1       -0.0002
     14 C          62.2187   85.9673    9.0945 C.ar    1  UNL1       -0.0000
     15 C          61.7259   86.1240   10.5024 C.ar    1  UNL1       -0.0002
     16 C          62.2127   85.1955   11.5752 C.ar    1  UNL1       -0.0007
     17 C          63.4888   89.8284   16.3731 C.3     1  UNL1        0.0882
     18 N          63.5109   90.9066   15.3305 N.pl3   1  UNL1       -0.3180
     19 H          62.6755   91.1793   14.8867 H       1  UNL1        0.1482
     20 C          64.8057   91.5691   14.9640 C.ar    1  UNL1        0.1318
     21 C          65.3319   91.4640   13.5633 C.ar    1  UNL1        0.0548
     22 C          66.6269   92.1266   13.1969 C.ar    1  UNL1        0.1035
     23 N          67.3955   92.8943   14.2312 N.ar    1  UNL1       -0.2223
     24 C          66.8693   92.9994   15.6319 C.ar    1  UNL1        0.2001
     25 N          65.5745   92.3369   15.9984 N.ar    1  UNL1       -0.2092
@<TRIPOS>BOND
     1     1     2    2
     2     2     9    1
     3     9    10    1
     4    10    11    1
     5    11    12   ar
     6    12    13   ar
     7    13    14   ar
     8    14    15   ar
     9    15    16   ar
    10     2     3   am
    11     3     4    1
    12     4     5    1
    13     5     6    1
    14     6    17    1
    15    17    18    1
    16    18    20    1
    17    20    21   ar
    18    21    22   ar
    19    22    23   ar
    20    23    24   ar
    21    24    25   ar
    22     6     7    1
    23     7     8    1
    24    16    11   ar
    25     8     3    1
    26    25    20   ar
    27    18    19    1
@<TRIPOS>MOLECULE
*****
 25 27 0 0 0
SMALL
GASTEIGER

@<TRIPOS>ATOM
      1 O          63.1467   91.6733   16.7849 O.2     1  UNL1       -0.2262
      2 C          63.6919   90.8968   15.6231 C.2     1  UNL1        0.4052
      3 N          63.7224   89.3979   15.6709 N.am    1  UNL1       -0.2460
      4 C          64.2676   88.6214   14.5091 C.3     1  UNL1        0.0968
      5 C          64.2981   87.1225   14.5570 C.3     1  UNL1        0.0234
      6 C          63.7834   86.4000   15.7666 C.3     1  UNL1        0.0230
      7 C          63.2382   87.1766   16.9284 C.3     1  UNL1        0.0234
      8 C          63.2077   88.6755   16.8806 C.3     1  UNL1        0.0968
      9 O          64.2066   91.6193   14.4135 O.3     1  UNL1       -0.4295
     10 C          65.6579   91.9864   14.3203 C.3     1  UNL1        0.2367
     11 C          66.3067   92.1450   12.9771 C.ar    1  UNL1        0.0213
     12 C          67.7532   91.7916   12.7964 C.ar    1  UNL1       -0.0007
     13 C          68.4019   91.9502   11.4533 C.ar    1  UNL1       -0.0002
     14 C          67.6041   92.4623   10.2909 C.ar    1  UNL1       -0.0000
     15 C          66.1576   92.8158   10.4715 C.ar    1  UNL1       -0.0002
     16 C          65.5089   92.6572   11.8147 C.ar    1  UNL1       -0.0007
     17 C          63.8139   84.9012   15.8144 C.3     1  UNL1        0.0882
     18 N          64.6859   84.1380   14.8620 N.pl3   1  UNL1       -0.3180
     19 H          65.6563   84.3028   14.8432 H       1  UNL1        0.1482
     20 C          64.0794   83.1237   13.9383 C.ar    1  UNL1        0.1318
     21 C          64.2040   83.2927   12.4530 C.ar    1  UNL1        0.0548
     22 C          63.5974   82.2783   11.5293 C.ar    1  UNL1        0.1035
     23 N          62.8664   81.0950   12.0908 N.ar    1  UNL1       -0.2223
     24 C          62.7418   80.9260   13.5760 C.ar    1  UNL1        0.2001
     25 N          63.3483   81.9403   14.4998 N.ar    1  UNL1       -0.2092
@<TRIPOS>BOND
     1     1     2    2
     2     2     9    1
     3     9    10    1
     4    10    11    1
     5    11    12   ar
     6    12    13   ar
     7    13    14   ar
     8    14    15   ar
     9    15    16   ar
    10     2     3   am
    11     3     4    1
    12     4     5    1
    13     5     6    1
    14     6    17    1
    15    17    18    1
    16    18    20    1
    17    20    21   ar
    18    21    22   ar
    19    22    23   ar
    20    23    24   ar
    21    24    25   ar
    22     6     7    1
    23     7     8    1
    24    16    11   ar
    25     8     3    1
    26    25    20   ar
    27    18    19    1
@<TRIPOS>MOLECULE
*****
 25 27 0 0 0
SMALL
GASTEIGER

@<TRIPOS>ATOM
      1 O          64.5477   82.6449   15.5163 O.2     1  UNL1       -0.2262
      2 C          63.6433   83.6878   14.9294 C.2     1  UNL1        0.4052
      3 N          63.5374   83.8369   13.4406 N.am    1  UNL1       -0.2460
      4 C          62.6331   84.8798   12.8537 C.3     1  UNL1        0.0968
      5 C          62.5272   85.0289   11.3650 C.3     1  UNL1        0.0234
      6 C          63.3257   84.1351   10.4630 C.3     1  UNL1        0.0230
      7 C          64.2301   83.0922   11.0499 C.3     1  UNL1        0.0234
      8 C          64.3360   82.9431   12.5387 C.3     1  UNL1        0.0968
      9 O          62.8448   84.5816   15.8314 O.3     1  UNL1       -0.4295
     10 C          63.5374   85.6212   16.6617 C.3     1  UNL1        0.2367
     11 C          63.6256   87.0362   16.1715 C.ar    1  UNL1        0.0213
     12 C          63.0480   88.1514   16.9916 C.ar    1  UNL1       -0.0007
     13 C          63.1361   89.5663   16.5014 C.ar    1  UNL1       -0.0002
     14 C          63.8019   89.8659   15.1910 C.ar    1  UNL1       -0.0000
     15 C          64.3794   88.7507   14.3709 C.ar    1  UNL1       -0.0002
     16 C          64.2913   87.3358   14.8611 C.ar    1  UNL1       -0.0007
     17 C          63.2198   84.2842    8.9742 C.3     1  UNL1        0.0882
     18 N          63.0706   85.6470    8.3656 N.pl3   1  UNL1       -0.3180
     19 H          63.8427   86.0817    7.9365 H       1  UNL1        0.1482
     20 C          61.7450   86.3476    8.4109 C.ar    1  UNL1        0.1318
     21 C          60.5902   85.8198    7.6122 C.ar    1  UNL1        0.0548
     22 C          59.2646   86.5205    7.6575 C.ar    1  UNL1        0.1035
     23 N          59.0939   87.7487    8.5014 N.ar    1  UNL1       -0.2223
     24 C          60.2487   88.2764    9.3001 C.ar    1  UNL1        0.2001
     25 N          61.5743   87.5759    9.2548 N.ar    1  UNL1       -0.2092
@<TRIPOS>BOND
     1     1     2    2
     2     2     9    1
     3     9    10    1
     4    10    11    1
     5    11    12   ar
     6    12    13   ar
     7    13    14   ar
     8    14    15   ar
     9    15    16   ar
    10     2     3   am
    11     3     4    1
    12     4     5    1
    13     5     6    1
    14     6    17    1
    15    17    18    1
    16    18    20    1
    17    20    21   ar
    18    21    22   ar
    19    22    23   ar
    20    23    24   ar
    21    24    25   ar
    22     6     7    1
    23     7     8    1
    24    16    11   ar
    25     8     3    1
    26    25    20   ar
    27    18    19    1
@<TRIPOS>MOLECULE
*****
 25 27 0 0 0
SMALL
GASTEIGER

@<TRIPOS>ATOM
      1 O          64.5794   82.4480   10.0450 O.2     1  UNL1       -0.2262
      2 C          63.6429   83.1459   10.9863 C.2     1  UNL1        0.4052
      3 N          62.9482   84.4042   10.5573 N.am    1  UNL1       -0.2460
      4 C          62.0117   85.1021   11.4986 C.3     1  UNL1        0.0968
      5 C          61.3170   86.3604   11.0696 C.3     1  UNL1        0.0234
      6 C          61.5588   86.9209    9.6994 C.3     1  UNL1        0.0230
      7 C          62.4953   86.2230    8.7582 C.3     1  UNL1        0.0234
      8 C          63.1900   84.9647    9.1872 C.3     1  UNL1        0.0968
      9 O          63.4011   82.5854   12.3565 O.3     1  UNL1       -0.4295
     10 C          64.3411   82.9146   13.4781 C.3     1  UNL1        0.2367
     11 C          63.9947   84.0010   14.4526 C.ar    1  UNL1        0.0213
     12 C          64.8295   85.2456   14.5163 C.ar    1  UNL1       -0.0007
     13 C          64.4830   86.3319   15.4909 C.ar    1  UNL1       -0.0002
     14 C          63.3018   86.1737   16.4017 C.ar    1  UNL1       -0.0000
     15 C          62.4670   84.9291   16.3381 C.ar    1  UNL1       -0.0002
     16 C          62.8135   83.8428   15.3635 C.ar    1  UNL1       -0.0007
     17 C          60.8641   88.1792    9.2705 C.3     1  UNL1        0.0882
     18 N          60.6252   89.2793   10.2618 N.pl3   1  UNL1       -0.3180
     19 H          59.7085   89.5913   10.4395 H       1  UNL1        0.1482
     20 C          61.7830   89.9040   10.9825 C.ar    1  UNL1        0.1318
     21 C          62.7268   90.8067   10.2447 C.ar    1  UNL1        0.0548
     22 C          63.8846   91.4314   10.9655 C.ar    1  UNL1        0.1035
     23 N          64.0985   91.1533   12.4238 N.ar    1  UNL1       -0.2223
     24 C          63.1547   90.2505   13.1615 C.ar    1  UNL1        0.2001
     25 N          61.9969   89.6259   12.4409 N.ar    1  UNL1       -0.2092
@<TRIPOS>BOND
     1     1     2    2
     2     2     9    1
     3     9    10    1
     4    10    11    1
     5    11    12   ar
     6    12    13   ar
     7    13    14   ar
     8    14    15   ar
     9    15    16   ar
    10     2     3   am
    11     3     4    1
    12     4     5    1
    13     5     6    1
    14     6    17    1
    15    17    18    1
    16    18    20    1
    17    20    21   ar
    18    21    22   ar
    19    22    23   ar
    20    23    24   ar
    21    24    25   ar
    22     6     7    1
    23     7     8    1
    24    16    11   ar
    25     8     3    1
    26    25    20   ar
    27    18    19    1
@<TRIPOS>MOLECULE
*****
 25 27 0 0 0
SMALL
GASTEIGER

@<TRIPOS>ATOM
      1 O          61.0403   86.4671    9.7150 O.2     1  UNL1       -0.2262
      2 C          61.7559   86.7318   11.0065 C.2     1  UNL1        0.4052
      3 N          62.3844   88.0709   11.2549 N.am    1  UNL1       -0.2460
      4 C          63.0999   88.3355   12.5464 C.3     1  UNL1        0.0968
      5 C          63.7284   89.6746   12.7948 C.3     1  UNL1        0.0234
      6 C          63.6414   90.7491   11.7517 C.3     1  UNL1        0.0230
      7 C          62.9259   90.4844   10.4602 C.3     1  UNL1        0.0234
      8 C          62.2973   89.1453   10.2118 C.3     1  UNL1        0.0968
      9 O          61.8429   85.6573   12.0496 O.3     1  UNL1       -0.4295
     10 C          62.9820   84.6816   12.0281 C.3     1  UNL1        0.2367
     11 C          62.7676   83.2682   12.4823 C.ar    1  UNL1        0.0213
     12 C          63.0302   82.1300   11.5412 C.ar    1  UNL1       -0.0007
     13 C          62.8158   80.7166   11.9954 C.ar    1  UNL1       -0.0002
     14 C          62.3387   80.4414   13.3907 C.ar    1  UNL1       -0.0000
     15 C          62.0761   81.5796   14.3317 C.ar    1  UNL1       -0.0002
     16 C          62.2905   82.9929   13.8775 C.ar    1  UNL1       -0.0007
     17 C          64.2699   92.0882   12.0001 C.3     1  UNL1        0.0882
     18 N          65.7596   92.2047   12.1318 N.pl3   1  UNL1       -0.3180
     19 H          66.3243   92.2323   11.3258 H       1  UNL1        0.1482
     20 C          66.3888   92.2793   13.4913 C.ar    1  UNL1        0.1318
     21 C          67.8578   92.0230   13.6530 C.ar    1  UNL1        0.0548
     22 C          68.4870   92.0976   15.0127 C.ar    1  UNL1        0.1035
     23 N          67.6471   92.4285   16.2106 N.ar    1  UNL1       -0.2223
     24 C          66.1781   92.6848   16.0489 C.ar    1  UNL1        0.2001
     25 N          65.5489   92.6102   14.6894 N.ar    1  UNL1       -0.2092
@<TRIPOS>BOND
     1     1     2    2
     2     2     9    1
     3     9    10    1
     4    10    11    1
     5    11    12   ar
     6    12    13   ar
     7    13    14   ar
     8    14    15   ar
     9    15    16   ar
    10     2     3   am
    11     3     4    1
    12     4     5    1
    13     5     6    1
    14     6    17    1
    15    17    18    1
    16    18    20    1
    17    20    21   ar
    18    21    22   ar
    19    22    23   ar
    20    23    24   ar
    21    24    25   ar
    22     6     7    1
    23     7     8    1
    24    16    11   ar
    25     8     3    1
    26    25    20   ar
    27    18    19    1
@<TRIPOS>MOLECULE
*****
 25 27 0 0 0
SMALL
GASTEIGER

@<TRIPOS>ATOM
      1 O          64.9144   82.4242   10.2653 O.2     1  UNL1       -0.2262
      2 C          63.8834   83.4554   10.6167 C.2     1  UNL1        0.4052
      3 N          63.8947   84.0953   11.9733 N.am    1  UNL1       -0.2460
      4 C          62.8637   85.1266   12.3247 C.3     1  UNL1        0.0968
      5 C          62.8750   85.7665   13.6812 C.3     1  UNL1        0.0234
      6 C          63.9173   85.3752   14.6865 C.3     1  UNL1        0.0230
      7 C          64.9483   84.3439   14.3351 C.3     1  UNL1        0.0234
      8 C          64.9370   83.7040   12.9784 C.3     1  UNL1        0.0968
      9 O          62.8411   83.8468    9.6114 O.3     1  UNL1       -0.4295
     10 C          63.0410   85.0648    8.7591 C.3     1  UNL1        0.2367
     11 C          61.9813   86.1251    8.7058 C.ar    1  UNL1        0.0213
     12 C          62.1376   87.3828    9.5081 C.ar    1  UNL1       -0.0007
     13 C          61.0779   88.4430    9.4548 C.ar    1  UNL1       -0.0002
     14 C          59.8618   88.2455    8.5991 C.ar    1  UNL1       -0.0000
     15 C          59.7055   86.9879    7.7968 C.ar    1  UNL1       -0.0002
     16 C          60.7652   85.9276    7.8502 C.ar    1  UNL1       -0.0007
     17 C          63.9286   86.0151   16.0431 C.3     1  UNL1        0.0882
     18 N          63.0659   87.2116   16.3151 N.pl3   1  UNL1       -0.3180
     19 H          62.1896   87.0982   16.7493 H       1  UNL1        0.1482
     20 C          63.5383   88.5810   15.9256 C.ar    1  UNL1        0.1318
     21 C          64.3619   88.7657   14.6856 C.ar    1  UNL1        0.0548
     22 C          64.8343   90.1351   14.2961 C.ar    1  UNL1        0.1035
     23 N          64.4831   91.3197   15.1466 N.ar    1  UNL1       -0.2223
     24 C          63.6594   91.1350   16.3866 C.ar    1  UNL1        0.2001
     25 N          63.1871   89.7656   16.7761 N.ar    1  UNL1       -0.2092
@<TRIPOS>BOND
     1     1     2    2
     2     2     9    1
     3     9    10    1
     4    10    11    1
     5    11    12   ar
     6    12    13   ar
     7    13    14   ar
     8    14    15   ar
     9    15    16   ar
    10     2     3   am
    11     3     4    1
    12     4     5    1
    13     5     6    1
    14     6    17    1
    15    17    18    1
    16    18    20    1
    17    20    21   ar
    18    21    22   ar
    19    22    23   ar
    20    23    24   ar
    21    24    25   ar
    22     6     7    1
    23     7     8    1
    24    16    11   ar
    25     8     3    1
    26    25    20   ar
    27    18    19    1
@<TRIPOS>MOLECULE
*****
 25 27 0 0 0
SMALL
GASTEIGER

@<TRIPOS>ATOM
      1 O          63.7003   81.1203   14.0420 O.2     1  UNL1       -0.2262
      2 C          63.3767   82.5834   14.1093 C.2     1  UNL1        0.4052
      3 N          63.1184   83.3533   12.8481 N.am    1  UNL1       -0.2460
      4 C          62.7948   84.8164   12.9155 C.3     1  UNL1        0.0968
      5 C          62.5365   85.5862   11.6543 C.3     1  UNL1        0.0234
      6 C          62.6019   84.8929   10.3257 C.3     1  UNL1        0.0230
      7 C          62.9255   83.4298   10.2583 C.3     1  UNL1        0.0234
      8 C          63.1838   82.6600   11.5196 C.3     1  UNL1        0.0968
      9 O          63.3113   83.2767   15.4379 O.3     1  UNL1       -0.4295
     10 C          64.3512   84.2934   15.8054 C.3     1  UNL1        0.2367
     11 C          63.9534   85.7193   16.0476 C.ar    1  UNL1        0.0213
     12 C          64.4285   86.7984   15.1203 C.ar    1  UNL1       -0.0007
     13 C          64.0307   88.2242   15.3626 C.ar    1  UNL1       -0.0002
     14 C          63.1578   88.5709   16.5321 C.ar    1  UNL1       -0.0000
     15 C          62.6827   87.4919   17.4594 C.ar    1  UNL1       -0.0002
     16 C          63.0805   86.0661   17.2171 C.ar    1  UNL1       -0.0007
     17 C          62.3436   85.6628    9.0645 C.3     1  UNL1        0.0882
     18 N          62.4650   87.1578    9.0602 N.pl3   1  UNL1       -0.3180
     19 H          62.9991   87.6064    8.3654 H       1  UNL1        0.1482
     20 C          61.7725   87.9695   10.1146 C.ar    1  UNL1        0.1318
     21 C          60.2992   87.8034   10.3419 C.ar    1  UNL1        0.0548
     22 C          59.6068   88.6152   11.3963 C.ar    1  UNL1        0.1035
     23 N          60.3877   89.5930   12.2233 N.ar    1  UNL1       -0.2223
     24 C          61.8610   89.7591   11.9960 C.ar    1  UNL1        0.2001
     25 N          62.5535   88.9474   10.9416 N.ar    1  UNL1       -0.2092
@<TRIPOS>BOND
     1     1     2    2
     2     2     9    1
     3     9    10    1
     4    10    11    1
     5    11    12   ar
     6    12    13   ar
     7    13    14   ar
     8    14    15   ar
     9    15    16   ar
    10     2     3   am
    11     3     4    1
    12     4     5    1
    13     5     6    1
    14     6    17    1
    15    17    18    1
    16    18    20    1
    17    20    21   ar
    18    21    22   ar
    19    22    23   ar
    20    23    24   ar
    21    24    25   ar
    22     6     7    1
    23     7     8    1
    24    16    11   ar
    25     8     3    1
    26    25    20   ar
    27    18    19    1
@<TRIPOS>MOLECULE
*****
 25 27 0 0 0
SMALL
GASTEIGER

@<TRIPOS>ATOM
      1 O          62.9795   84.6891    7.3906 O.2     1  UNL1       -0.2262
      2 C          63.0035   84.6698    8.8903 C.2     1  UNL1        0.4052
      3 N          62.6059   85.8927    9.6625 N.am    1  UNL1       -0.2460
      4 C          62.6299   85.8734   11.1622 C.3     1  UNL1        0.0968
      5 C          62.2323   87.0963   11.9344 C.3     1  UNL1        0.0234
      6 C          61.8106   88.3385   11.2070 C.3     1  UNL1        0.0230
      7 C          61.7866   88.3578    9.7073 C.3     1  UNL1        0.0234
      8 C          62.1843   87.1348    8.9351 C.3     1  UNL1        0.0968
      9 O          63.4252   83.4275    9.6177 O.3     1  UNL1       -0.4295
     10 C          63.8822   83.5121   11.0439 C.3     1  UNL1        0.2367
     11 C          63.2509   82.6381   12.0868 C.ar    1  UNL1        0.0213
     12 C          63.0213   81.1825   11.8068 C.ar    1  UNL1       -0.0007
     13 C          62.3901   80.3086   12.8497 C.ar    1  UNL1       -0.0002
     14 C          61.9885   80.8903   14.1727 C.ar    1  UNL1       -0.0000
     15 C          62.2181   82.3459   14.4528 C.ar    1  UNL1       -0.0002
     16 C          62.8493   83.2198   13.4099 C.ar    1  UNL1       -0.0007
     17 C          61.4130   89.5614   11.9793 C.3     1  UNL1        0.0882
     18 N          62.3348   90.1235   13.0205 N.pl3   1  UNL1       -0.3180
     19 H          62.1787   89.9290   13.9729 H       1  UNL1        0.1482
     20 C          63.4946   90.9820   12.6108 C.ar    1  UNL1        0.1318
     21 C          63.7071   91.3147   11.1637 C.ar    1  UNL1        0.0548
     22 C          64.8669   92.1733   10.7540 C.ar    1  UNL1        0.1035
     23 N          65.8141   92.6991   11.7914 N.ar    1  UNL1       -0.2223
     24 C          65.6016   92.3664   13.2385 C.ar    1  UNL1        0.2001
     25 N          64.4419   91.5079   13.6482 N.ar    1  UNL1       -0.2092
@<TRIPOS>BOND
     1     1     2    2
     2     2     9    1
     3     9    10    1
     4    10    11    1
     5    11    12   ar
     6    12    13   ar
     7    13    14   ar
     8    14    15   ar
     9    15    16   ar
    10     2     3   am
    11     3     4    1
    12     4     5    1
    13     5     6    1
    14     6    17    1
    15    17    18    1
    16    18    20    1
    17    20    21   ar
    18    21    22   ar
    19    22    23   ar
    20    23    24   ar
    21    24    25   ar
    22     6     7    1
    23     7     8    1
    24    16    11   ar
    25     8     3    1
    26    25    20   ar
    27    18    19    1
