@<TRIPOS>MOLECULE
*****
 33 36 0 0 0
SMALL
GASTEIGER

@<TRIPOS>ATOM
      1 C          63.7981   88.1718   12.7659 C.3     1  UNL1        0.0954
      2 C          64.4644   87.3529   13.8315 C.3     1  UNL1        0.0371
      3 C          64.0594   85.9241   14.0425 C.3     1  UNL1        0.0841
      4 N          64.7257   85.1052   15.1082 N.3     1  UNL1       -0.3199
      5 C          62.9882   85.3142   13.1879 C.3     1  UNL1        0.1540
      6 O          62.3219   86.1331   12.1223 O.3     1  UNL1       -0.3432
      7 C          62.7269   87.5619   11.9113 C.3     1  UNL1        0.2247
      8 H          65.4231   85.6743   15.5880 H       1  UNL1        0.1189
      9 H          65.1804   84.2978   14.6820 H       1  UNL1        0.1189
     10 N          65.4495   93.9980   11.9057 N.ar    1  UNL1       -0.1303
     11 C          64.8393   93.0933   10.8765 C.ar    1  UNL1        0.1195
     12 C          64.5963   91.7592   11.5176 C.ar    1  UNL1        0.0312
     13 C          65.0563   91.8393   12.9431 C.ar    1  UNL1        0.0954
     14 N          65.5836   93.2229   13.1829 N.ar    1  UNL1       -0.1519
     15 C          64.8133   90.5051   13.5842 C.3     1  UNL1        0.1205
     16 N          64.2031   89.6006   12.5550 N.3     1  UNL1       -0.2625
     17 C          64.0690   90.3756   11.2778 C.3     1  UNL1        0.1024
     18 C          66.2594   96.8556   11.4837 C.3     1  UNL1        0.2042
     19 S          65.8545   95.4268   11.6947 S.O2    1  UNL1        0.0828
     20 O          66.3624   95.4910   13.1046 O.2     1  UNL1       -0.1508
     21 O          65.3465   95.3626   10.2848 O.2     1  UNL1       -0.1508
     22 C          62.5832   83.8854   13.3989 C.ar    1  UNL1        0.0355
     23 C          62.8422   82.8666   12.3288 C.ar    1  UNL1        0.0300
     24 C          62.4372   81.4378   12.5398 C.ar    1  UNL1        0.1400
     25 F          62.6962   80.4190   11.4697 F       1  UNL1       -0.2042
     26 C          61.7732   81.0278   13.8208 C.ar    1  UNL1        0.0319
     27 C          61.5143   82.0465   14.8908 C.ar    1  UNL1        0.0317
     28 C          61.9192   83.4753   14.6798 C.ar    1  UNL1        0.1386
     29 F          61.6602   84.4941   15.7499 F       1  UNL1       -0.2044
     30 C          62.0606   88.3807   10.8457 C.3     1  UNL1        0.4234
     31 F          61.3943   89.1996    9.7801 F       1  UNL1       -0.1674
     32 F          62.8538   87.6601    9.7960 F       1  UNL1       -0.1674
     33 F          61.2675   89.1013   11.8953 F       1  UNL1       -0.1674
@<TRIPOS>BOND
     1    18    19    1
     2    19    20    2
     3    19    21    2
     4    19    10    1
     5    10    11   ar
     6    11    12   ar
     7    12    13   ar
     8    13    14   ar
     9    13    15    1
    10    15    16    1
    11     1    16    1
    12     1     2    1
    13     2     3    1
    14     3     4    1
    15     3     5    1
    16     5    22    1
    17    22    23   ar
    18    23    24   ar
    19    24    25    1
    20    24    26   ar
    21    26    27   ar
    22    27    28   ar
    23    28    29    1
    24     5     6    1
    25     6     7    1
    26     7    30    1
    27    30    31    1
    28    30    32    1
    29    30    33    1
    30    16    17    1
    31    14    10   ar
    32     7     1    1
    33    17    12    1
    34    28    22   ar
    35     4     8    1
    36     4     9    1
@<TRIPOS>MOLECULE
*****
 33 36 0 0 0
SMALL
GASTEIGER

@<TRIPOS>ATOM
      1 C          63.3626   85.9355   13.8369 C.3     1  UNL1        0.0954
      2 C          63.2029   85.1813   12.5502 C.3     1  UNL1        0.0371
      3 C          62.7134   83.7635   12.5677 C.3     1  UNL1        0.0841
      4 N          62.5537   83.0093   11.2809 N.3     1  UNL1       -0.3199
      5 C          62.3835   83.1000   13.8718 C.3     1  UNL1        0.1540
      6 O          62.5431   83.8542   15.1585 O.3     1  UNL1       -0.3432
      7 C          63.0327   85.2720   15.1410 C.3     1  UNL1        0.2247
      8 H          62.8208   83.6087   10.5000 H       1  UNL1        0.1189
      9 H          61.5805   82.7235   11.1727 H       1  UNL1        0.1189
     10 N          65.3588   91.7166   13.7656 N.ar    1  UNL1       -0.1303
     11 C          64.4240   91.0943   12.7712 C.ar    1  UNL1        0.1195
     12 C          64.2055   89.6653   13.1716 C.ar    1  UNL1        0.0312
     13 C          65.0053   89.4045   14.4135 C.ar    1  UNL1        0.0954
     14 N          65.7180   90.6723   14.7806 N.ar    1  UNL1       -0.1519
     15 C          64.7868   87.9755   14.8138 C.3     1  UNL1        0.1205
     16 N          63.8521   87.3533   13.8194 N.3     1  UNL1       -0.2625
     17 C          63.4928   88.3976   12.8044 C.3     1  UNL1        0.1024
     18 C          66.3379   94.5522   13.7307 C.3     1  UNL1        0.2042
     19 S          65.8483   93.1344   13.7482 S.O2    1  UNL1        0.0828
     20 O          65.9673   93.1117   15.2432 O.2     1  UNL1       -0.1508
     21 O          65.7293   93.1571   12.2531 O.2     1  UNL1       -0.1508
     22 C          61.8939   81.6822   13.8893 C.ar    1  UNL1        0.0355
     23 C          60.4559   81.3891   14.1994 C.ar    1  UNL1        0.0300
     24 C          59.9664   79.9713   14.2169 C.ar    1  UNL1        0.1400
     25 F          58.5283   79.6782   14.5271 F       1  UNL1       -0.2042
     26 C          60.9148   78.8467   13.9242 C.ar    1  UNL1        0.0319
     27 C          62.3528   79.1399   13.6141 C.ar    1  UNL1        0.0317
     28 C          62.8423   80.5576   13.5966 C.ar    1  UNL1        0.1386
     29 F          64.2804   80.8507   13.2864 F       1  UNL1       -0.2044
     30 C          63.1923   86.0262   16.4278 C.3     1  UNL1        0.4234
     31 F          63.3519   86.7804   17.7145 F       1  UNL1       -0.1674
     32 F          64.6416   85.6422   16.4731 F       1  UNL1       -0.1674
     33 F          61.7430   86.4102   16.3825 F       1  UNL1       -0.1674
@<TRIPOS>BOND
     1    18    19    1
     2    19    20    2
     3    19    21    2
     4    19    10    1
     5    10    11   ar
     6    11    12   ar
     7    12    13   ar
     8    13    14   ar
     9    13    15    1
    10    15    16    1
    11     1    16    1
    12     1     2    1
    13     2     3    1
    14     3     4    1
    15     3     5    1
    16     5    22    1
    17    22    23   ar
    18    23    24   ar
    19    24    25    1
    20    24    26   ar
    21    26    27   ar
    22    27    28   ar
    23    28    29    1
    24     5     6    1
    25     6     7    1
    26     7    30    1
    27    30    31    1
    28    30    32    1
    29    30    33    1
    30    16    17    1
    31    14    10   ar
    32     7     1    1
    33    17    12    1
    34    28    22   ar
    35     4     8    1
    36     4     9    1
@<TRIPOS>MOLECULE
*****
 33 36 0 0 0
SMALL
GASTEIGER

@<TRIPOS>ATOM
      1 C          63.3442   86.1472   13.4813 C.3     1  UNL1        0.0954
      2 C          63.6897   85.2933   14.6651 C.3     1  UNL1        0.0371
      3 C          63.2201   83.8700   14.7258 C.3     1  UNL1        0.0841
      4 N          63.5656   83.0161   15.9097 N.3     1  UNL1       -0.3199
      5 C          62.4051   83.3005   13.6027 C.3     1  UNL1        0.1540
      6 O          62.0596   84.1544   12.4189 O.3     1  UNL1       -0.3432
      7 C          62.5292   85.5777   12.3582 C.3     1  UNL1        0.2247
      8 H          64.1194   83.5602   16.5713 H       1  UNL1        0.1189
      9 H          64.1042   82.2072   15.5999 H       1  UNL1        0.1189
     10 N          65.2588   91.9510   13.2337 N.ar    1  UNL1       -0.1303
     11 C          65.5821   90.9612   14.3134 C.ar    1  UNL1        0.1195
     12 C          64.9067   89.6660   13.9724 C.ar    1  UNL1        0.0312
     13 C          64.1659   89.8554   12.6819 C.ar    1  UNL1        0.0954
     14 N          64.3835   91.2675   12.2254 N.ar    1  UNL1       -0.1519
     15 C          63.4904   88.5602   12.3409 C.3     1  UNL1        0.1205
     16 N          63.8137   87.5705   13.4206 N.3     1  UNL1       -0.2625
     17 C          64.6890   88.2538   14.4289 C.3     1  UNL1        0.1024
     18 C          66.1979   94.7976   13.1123 C.3     1  UNL1        0.2042
     19 S          65.7284   93.3743   13.1730 S.O2    1  UNL1        0.0828
     20 O          66.0146   93.3427   14.6451 O.2     1  UNL1       -0.1508
     21 O          65.4421   93.4059   11.7009 O.2     1  UNL1       -0.1508
     22 C          61.9355   81.8772   13.6634 C.ar    1  UNL1        0.0355
     23 C          60.5463   81.5652   14.1351 C.ar    1  UNL1        0.0300
     24 C          60.0767   80.1419   14.1958 C.ar    1  UNL1        0.1400
     25 F          58.6873   79.8300   14.6675 F       1  UNL1       -0.2042
     26 C          60.9964   79.0306   13.7848 C.ar    1  UNL1        0.0319
     27 C          62.3857   79.3425   13.3132 C.ar    1  UNL1        0.0317
     28 C          62.8553   80.7658   13.2525 C.ar    1  UNL1        0.1386
     29 F          64.2446   81.0778   12.7808 F       1  UNL1       -0.2044
     30 C          62.1836   86.4316   11.1743 C.3     1  UNL1        0.4234
     31 F          61.8382   87.2854    9.9904 F       1  UNL1       -0.1674
     32 F          61.0138   86.9973   11.9237 F       1  UNL1       -0.1674
     33 F          63.3534   85.8659   10.4249 F       1  UNL1       -0.1674
@<TRIPOS>BOND
     1    18    19    1
     2    19    20    2
     3    19    21    2
     4    19    10    1
     5    10    11   ar
     6    11    12   ar
     7    12    13   ar
     8    13    14   ar
     9    13    15    1
    10    15    16    1
    11     1    16    1
    12     1     2    1
    13     2     3    1
    14     3     4    1
    15     3     5    1
    16     5    22    1
    17    22    23   ar
    18    23    24   ar
    19    24    25    1
    20    24    26   ar
    21    26    27   ar
    22    27    28   ar
    23    28    29    1
    24     5     6    1
    25     6     7    1
    26     7    30    1
    27    30    31    1
    28    30    32    1
    29    30    33    1
    30    16    17    1
    31    14    10   ar
    32     7     1    1
    33    17    12    1
    34    28    22   ar
    35     4     8    1
    36     4     9    1
@<TRIPOS>MOLECULE
*****
 33 36 0 0 0
SMALL
GASTEIGER

@<TRIPOS>ATOM
      1 C          63.7941   85.8108   13.2741 C.3     1  UNL1        0.0954
      2 C          63.3756   87.0012   12.4631 C.3     1  UNL1        0.0371
      3 C          63.5924   88.3862   12.9968 C.3     1  UNL1        0.0841
      4 N          63.1738   89.5766   12.1857 N.3     1  UNL1       -0.3199
      5 C          64.2278   88.5808   14.3415 C.3     1  UNL1        0.1540
      6 O          64.6464   87.3904   15.1525 O.3     1  UNL1       -0.3432
      7 C          64.4295   86.0054   14.6188 C.3     1  UNL1        0.2247
      8 H          62.7635   89.2617   11.3066 H       1  UNL1        0.1189
      9 H          63.9883   90.1591   11.9914 H       1  UNL1        0.1189
     10 N          62.9098   80.1634   11.0977 N.ar    1  UNL1       -0.1303
     11 C          62.6937   80.6063   12.5144 C.ar    1  UNL1        0.1195
     12 C          63.0312   82.0652   12.6007 C.ar    1  UNL1        0.0312
     13 C          63.4559   82.5242   11.2373 C.ar    1  UNL1        0.0954
     14 N          63.3809   81.3488   10.3084 N.ar    1  UNL1       -0.1519
     15 C          63.7934   83.9832   11.3236 C.3     1  UNL1        0.1205
     16 N          63.5773   84.4259   12.7403 N.3     1  UNL1       -0.2625
     17 C          63.1062   83.2406   13.5297 C.3     1  UNL1        0.1024
     18 C          62.4761   77.3935   10.0302 C.3     1  UNL1        0.2042
     19 S          62.6930   78.7785   10.5640 S.O2    1  UNL1        0.0828
     20 O          62.5119   78.2678   11.9627 O.2     1  UNL1       -0.1508
     21 O          62.8740   79.2892    9.1652 O.2     1  UNL1       -0.1508
     22 C          64.4447   89.9657   14.8752 C.ar    1  UNL1        0.0355
     23 C          65.4525   90.8693   14.2289 C.ar    1  UNL1        0.0300
     24 C          65.6694   92.2542   14.7626 C.ar    1  UNL1        0.1400
     25 F          66.6772   93.1578   14.1162 F       1  UNL1       -0.2042
     26 C          64.8784   92.7356   15.9427 C.ar    1  UNL1        0.0319
     27 C          63.8706   91.8320   16.5890 C.ar    1  UNL1        0.0317
     28 C          63.6538   90.4471   16.0553 C.ar    1  UNL1        0.1386
     29 F          62.6459   89.5435   16.7017 F       1  UNL1       -0.2044
     30 C          64.8481   84.8150   15.4299 C.3     1  UNL1        0.4234
     31 F          65.2667   83.6247   16.2409 F       1  UNL1       -0.1674
     32 F          66.0425   84.6297   14.5415 F       1  UNL1       -0.1674
     33 F          63.6538   85.0003   16.3181 F       1  UNL1       -0.1674
@<TRIPOS>BOND
     1    18    19    1
     2    19    20    2
     3    19    21    2
     4    19    10    1
     5    10    11   ar
     6    11    12   ar
     7    12    13   ar
     8    13    14   ar
     9    13    15    1
    10    15    16    1
    11     1    16    1
    12     1     2    1
    13     2     3    1
    14     3     4    1
    15     3     5    1
    16     5    22    1
    17    22    23   ar
    18    23    24   ar
    19    24    25    1
    20    24    26   ar
    21    26    27   ar
    22    27    28   ar
    23    28    29    1
    24     5     6    1
    25     6     7    1
    26     7    30    1
    27    30    31    1
    28    30    32    1
    29    30    33    1
    30    16    17    1
    31    14    10   ar
    32     7     1    1
    33    17    12    1
    34    28    22   ar
    35     4     8    1
    36     4     9    1
@<TRIPOS>MOLECULE
*****
 33 36 0 0 0
SMALL
GASTEIGER

@<TRIPOS>ATOM
      1 C          61.0081   87.8230    9.4436 C.3     1  UNL1        0.0954
      2 C          60.2609   87.1626    8.3231 C.3     1  UNL1        0.0371
      3 C          59.6375   87.9965    7.2432 C.3     1  UNL1        0.0841
      4 N          58.8903   87.3360    6.1227 N.3     1  UNL1       -0.3199
      5 C          59.7614   89.4908    7.2838 C.3     1  UNL1        0.1540
      6 O          60.5086   90.1512    8.4043 O.3     1  UNL1       -0.3432
      7 C          61.1319   89.3173    9.4842 C.3     1  UNL1        0.2247
      8 H          58.9058   86.3245    6.2534 H       1  UNL1        0.1189
      9 H          59.3327   87.5708    5.2341 H       1  UNL1        0.1189
     10 N          63.5498   84.4227   13.8469 N.ar    1  UNL1       -0.1303
     11 C          62.7046   83.9138   12.7170 C.ar    1  UNL1        0.1195
     12 C          62.2946   85.0885   11.8791 C.ar    1  UNL1        0.0312
     13 C          62.8865   86.3234   12.4911 C.ar    1  UNL1        0.0954
     14 N          63.6623   85.9119   13.7072 N.ar    1  UNL1       -0.1519
     15 C          62.4766   87.4981   11.6532 C.3     1  UNL1        0.1205
     16 N          61.6314   86.9891   10.5234 N.3     1  UNL1       -0.2625
     17 C          61.5189   85.4999   10.6630 C.3     1  UNL1        0.1024
     18 C          64.7965   82.7549   16.0066 C.3     1  UNL1        0.2042
     19 S          64.1731   83.5888   14.9267 S.O2    1  UNL1        0.0828
     20 O          62.8828   82.8428   15.0955 O.2     1  UNL1       -0.1508
     21 O          65.4635   84.3348   14.7580 O.2     1  UNL1       -0.1508
     22 C          59.1381   90.3246    6.2040 C.ar    1  UNL1        0.0355
     23 C          57.6451   90.4330    6.1077 C.ar    1  UNL1        0.0300
     24 C          57.0218   91.2669    5.0278 C.ar    1  UNL1        0.1400
     25 F          55.5288   91.3753    4.9315 F       1  UNL1       -0.2042
     26 C          57.8914   91.9924    4.0443 C.ar    1  UNL1        0.0319
     27 C          59.3843   91.8840    4.1406 C.ar    1  UNL1        0.0317
     28 C          60.0077   91.0501    5.2204 C.ar    1  UNL1        0.1386
     29 F          61.5007   90.9417    5.3167 F       1  UNL1       -0.2044
     30 C          61.8792   89.9778   10.6047 C.3     1  UNL1        0.4234
     31 F          62.6264   90.6382   11.7251 F       1  UNL1       -0.1674
     32 F          60.6064   90.0829   11.3915 F       1  UNL1       -0.1674
     33 F          63.1519   89.8726    9.8179 F       1  UNL1       -0.1674
@<TRIPOS>BOND
     1    18    19    1
     2    19    20    2
     3    19    21    2
     4    19    10    1
     5    10    11   ar
     6    11    12   ar
     7    12    13   ar
     8    13    14   ar
     9    13    15    1
    10    15    16    1
    11     1    16    1
    12     1     2    1
    13     2     3    1
    14     3     4    1
    15     3     5    1
    16     5    22    1
    17    22    23   ar
    18    23    24   ar
    19    24    25    1
    20    24    26   ar
    21    26    27   ar
    22    27    28   ar
    23    28    29    1
    24     5     6    1
    25     6     7    1
    26     7    30    1
    27    30    31    1
    28    30    32    1
    29    30    33    1
    30    16    17    1
    31    14    10   ar
    32     7     1    1
    33    17    12    1
    34    28    22   ar
    35     4     8    1
    36     4     9    1
@<TRIPOS>MOLECULE
*****
 33 36 0 0 0
SMALL
GASTEIGER

@<TRIPOS>ATOM
      1 C          60.9921   86.9812    9.0542 C.3     1  UNL1        0.0954
      2 C          60.6117   88.3421    9.5575 C.3     1  UNL1        0.0371
      3 C          60.0203   89.3509    8.6180 C.3     1  UNL1        0.0841
      4 N          59.6400   90.7119    9.1214 N.3     1  UNL1       -0.3199
      5 C          59.8093   88.9989    7.1753 C.3     1  UNL1        0.1540
      6 O          60.1897   87.6380    6.6720 O.3     1  UNL1       -0.3432
      7 C          60.7810   86.6292    7.6115 C.3     1  UNL1        0.2247
      8 H          59.8508   90.7772   10.1172 H       1  UNL1        0.1189
      9 H          58.6418   90.8619    8.9746 H       1  UNL1        0.1189
     10 N          63.4035   82.8676   12.8849 N.ar    1  UNL1       -0.1303
     11 C          63.5876   82.9006   11.3966 C.ar    1  UNL1        0.1195
     12 C          62.8221   84.0739   10.8607 C.ar    1  UNL1        0.0312
     13 C          62.1649   84.7662   12.0178 C.ar    1  UNL1        0.0954
     14 N          62.5242   84.0206   13.2688 N.ar    1  UNL1       -0.1519
     15 C          61.3994   85.9395   11.4819 C.3     1  UNL1        0.1205
     16 N          61.5835   85.9724    9.9936 N.3     1  UNL1       -0.2625
     17 C          62.4627   84.8195    9.6097 C.3     1  UNL1        0.1024
     18 C          64.5863   80.8500   14.7638 C.3     1  UNL1        0.2042
     19 S          63.9949   81.8588   13.8244 S.O2    1  UNL1        0.0828
     20 O          63.8222   80.7904   12.7858 O.2     1  UNL1       -0.1508
     21 O          64.1677   82.9272   14.8629 O.2     1  UNL1       -0.1508
     22 C          59.2179   90.0077    6.2359 C.ar    1  UNL1        0.0355
     23 C          57.7285   90.1427    6.1210 C.ar    1  UNL1        0.0300
     24 C          57.1371   91.1516    5.1815 C.ar    1  UNL1        0.1400
     25 F          55.6475   91.2866    5.0667 F       1  UNL1       -0.2042
     26 C          58.0352   92.0253    4.3570 C.ar    1  UNL1        0.0319
     27 C          59.5246   91.8903    4.4719 C.ar    1  UNL1        0.0317
     28 C          60.1160   90.8815    5.4113 C.ar    1  UNL1        0.1386
     29 F          61.6055   90.7465    5.5262 F       1  UNL1       -0.2044
     30 C          61.1614   85.2683    7.1081 C.3     1  UNL1        0.4234
     31 F          61.5417   83.9074    6.6048 F       1  UNL1       -0.1674
     32 F          62.6085   85.6622    7.1365 F       1  UNL1       -0.1674
     33 F          59.7143   84.8744    7.0798 F       1  UNL1       -0.1674
@<TRIPOS>BOND
     1    18    19    1
     2    19    20    2
     3    19    21    2
     4    19    10    1
     5    10    11   ar
     6    11    12   ar
     7    12    13   ar
     8    13    14   ar
     9    13    15    1
    10    15    16    1
    11     1    16    1
    12     1     2    1
    13     2     3    1
    14     3     4    1
    15     3     5    1
    16     5    22    1
    17    22    23   ar
    18    23    24   ar
    19    24    25    1
    20    24    26   ar
    21    26    27   ar
    22    27    28   ar
    23    28    29    1
    24     5     6    1
    25     6     7    1
    26     7    30    1
    27    30    31    1
    28    30    32    1
    29    30    33    1
    30    16    17    1
    31    14    10   ar
    32     7     1    1
    33    17    12    1
    34    28    22   ar
    35     4     8    1
    36     4     9    1
@<TRIPOS>MOLECULE
*****
 33 36 0 0 0
SMALL
GASTEIGER

@<TRIPOS>ATOM
      1 C          61.2285   86.9641    9.9717 C.3     1  UNL1        0.0954
      2 C          61.9440   85.7200    9.5357 C.3     1  UNL1        0.0371
      3 C          62.6211   84.8490   10.5520 C.3     1  UNL1        0.0841
      4 N          63.3367   83.6048   10.1160 N.3     1  UNL1       -0.3199
      5 C          62.5826   85.2221   12.0043 C.3     1  UNL1        0.1540
      6 O          61.8671   86.4662   12.4403 O.3     1  UNL1       -0.3432
      7 C          61.1900   87.3372   11.4240 C.3     1  UNL1        0.2247
      8 H          63.2625   83.5072    9.1034 H       1  UNL1        0.1189
      9 H          62.9143   82.7937   10.5676 H       1  UNL1        0.1189
     10 N          58.4677   90.5159    5.8275 N.ar    1  UNL1       -0.1303
     11 C          59.7472   90.8292    6.5449 C.ar    1  UNL1        0.1195
     12 C          60.0544   89.6856    7.4657 C.ar    1  UNL1        0.0312
     13 C          58.9648   88.6654    7.3173 C.ar    1  UNL1        0.0954
     14 N          57.9842   89.1786    6.3048 N.ar    1  UNL1       -0.1519
     15 C          59.2720   87.5218    8.2380 C.3     1  UNL1        0.1205
     16 N          60.5514   87.8352    8.9554 N.3     1  UNL1       -0.2625
     17 C          61.0350   89.1724    8.4781 C.3     1  UNL1        0.1024
     18 C          57.1136   92.2580    3.7948 C.3     1  UNL1        0.2042
     19 S          57.7906   91.3869    4.8112 S.O2    1  UNL1        0.0828
     20 O          56.4535   90.8956    5.2809 O.2     1  UNL1       -0.1508
     21 O          59.1278   91.8782    4.3414 O.2     1  UNL1       -0.1508
     22 C          63.2597   84.3511   13.0207 C.ar    1  UNL1        0.0355
     23 C          63.0412   82.8672   13.0014 C.ar    1  UNL1        0.0300
     24 C          63.7183   81.9962   14.0177 C.ar    1  UNL1        0.1400
     25 F          63.4998   80.5122   13.9984 F       1  UNL1       -0.2042
     26 C          64.6138   82.6090   15.0533 C.ar    1  UNL1        0.0319
     27 C          64.8322   84.0929   15.0726 C.ar    1  UNL1        0.0317
     28 C          64.1551   84.9639   14.0563 C.ar    1  UNL1        0.1386
     29 F          64.3736   86.4478   14.0756 F       1  UNL1       -0.2044
     30 C          60.4744   88.5814   11.8601 C.3     1  UNL1        0.4234
     31 F          59.7589   89.8255   12.2961 F       1  UNL1       -0.1674
     32 F          61.7928   89.2600   12.0874 F       1  UNL1       -0.1674
     33 F          59.1562   87.9028   11.6328 F       1  UNL1       -0.1674
@<TRIPOS>BOND
     1    18    19    1
     2    19    20    2
     3    19    21    2
     4    19    10    1
     5    10    11   ar
     6    11    12   ar
     7    12    13   ar
     8    13    14   ar
     9    13    15    1
    10    15    16    1
    11     1    16    1
    12     1     2    1
    13     2     3    1
    14     3     4    1
    15     3     5    1
    16     5    22    1
    17    22    23   ar
    18    23    24   ar
    19    24    25    1
    20    24    26   ar
    21    26    27   ar
    22    27    28   ar
    23    28    29    1
    24     5     6    1
    25     6     7    1
    26     7    30    1
    27    30    31    1
    28    30    32    1
    29    30    33    1
    30    16    17    1
    31    14    10   ar
    32     7     1    1
    33    17    12    1
    34    28    22   ar
    35     4     8    1
    36     4     9    1
