@<TRIPOS>MOLECULE
*****
 30 33 0 0 0
SMALL
GASTEIGER

@<TRIPOS>ATOM
      1 N          63.1390   89.7087   11.7537 N.pl3   1  UNL1       -0.2740
      2 C          63.8479   90.9425   11.2792 C.3     1  UNL1        0.1079
      3 C          64.5617   91.5469   12.4519 C.3     1  UNL1        0.1498
      4 C          65.4209   92.7694   12.5826 C.2     1  UNL1        0.2919
      5 O          65.6888   93.6297   11.3834 O.2     1  UNL1       -0.2563
      6 N          66.0124   93.1317   13.9127 N.am    1  UNL1       -0.1449
      7 C          66.8717   94.3543   14.0435 C.3     1  UNL1        0.2159
      8 C          65.7446   92.2714   15.1119 C.2     1  UNL1        0.3728
      9 N          66.3360   92.6337   16.4420 N.2     1  UNL1       -0.1329
     10 N          64.8853   91.0489   14.9812 N.pl3   1  UNL1       -0.2247
     11 C          64.2939   90.6866   13.6512 C.3     1  UNL1        0.1559
     12 C          63.4146   89.5506   13.2197 C.3     1  UNL1        0.1327
     13 H          66.9000   93.4361   16.5279 H       1  UNL1        0.3058
     14 H          64.7096   90.4843   15.7683 H       1  UNL1        0.2454
     15 C          61.5063   86.3972   10.2983 C.ar    1  UNL1        0.2569
     16 N          62.3438   87.3123   11.1416 N.ar    1  UNL1       -0.1768
     17 C          62.3014   88.7937   10.9103 C.ar    1  UNL1        0.2226
     18 N          61.4215   89.3602    9.8357 N.ar    1  UNL1       -0.2155
     19 C          60.5840   88.4450    8.9923 C.ar    1  UNL1        0.0942
     20 C          59.7041   89.0115    7.9177 C.3     1  UNL1        0.0548
     21 C          60.6263   86.9636    9.2236 C.ar    1  UNL1        0.2065
     22 F          59.7888   86.0486    8.3803 F       1  UNL1       -0.1980
     23 C          62.6606   84.3142   11.3369 C.3     1  UNL1        0.2543
     24 O          61.5487   84.9158   10.5296 O.3     1  UNL1       -0.4545
     25 C          63.9400   89.7354   14.7557 C.ar    1  UNL1        0.0406
     26 C          63.3099   90.1019   16.0667 C.ar    1  UNL1        0.0066
     27 C          63.1346   88.8437   16.8644 C.ar    1  UNL1        0.0182
     28 C          63.6563   87.6997   16.0464 C.ar    1  UNL1        0.0868
     29 CL         63.6766   86.2577   16.4592 Cl      1  UNL1       -0.0752
     30 S          64.1541   88.2509   14.7432 S.2     1  UNL1       -0.0768
@<TRIPOS>BOND
     1    23    24    1
     2    24    15    1
     3    15    16   ar
     4    16    17   ar
     5    17     1    1
     6     1     2    1
     7     3     2    1
     8     3     4    1
     9     4     5    2
    10     4     6   am
    11     6     7    1
    12     6     8    1
    13     8     9    2
    14     8    10    1
    15    10    11    1
    16    11    25    1
    17    25    26   ar
    18    26    27   ar
    19    27    28   ar
    20    28    29    1
    21    28    30   ar
    22    11    12    1
    23    17    18   ar
    24    18    19   ar
    25    19    20    1
    26    19    21   ar
    27    21    22    1
    28    21    15   ar
    29    12     1    1
    30    11     3    1
    31    30    25   ar
    32     9    13    1
    33    10    14    1
@<TRIPOS>MOLECULE
*****
 30 33 0 0 0
SMALL
GASTEIGER

@<TRIPOS>ATOM
      1 N          63.1212   89.8571   11.7105 N.pl3   1  UNL1       -0.2740
      2 C          63.8467   91.0986   11.2837 C.3     1  UNL1        0.1079
      3 C          64.5908   91.6321   12.4718 C.3     1  UNL1        0.1498
      4 C          65.4760   92.8304   12.6464 C.2     1  UNL1        0.2919
      5 O          65.7417   93.7423   11.4853 O.2     1  UNL1       -0.2563
      6 N          66.0955   93.1169   13.9822 N.am    1  UNL1       -0.1449
      7 C          66.9807   94.3153   14.1568 C.3     1  UNL1        0.2159
      8 C          65.8299   92.2052   15.1432 C.2     1  UNL1        0.3728
      9 N          66.4494   92.4917   16.4790 N.2     1  UNL1       -0.1329
     10 N          64.9447   91.0069   14.9686 N.pl3   1  UNL1       -0.2247
     11 C          64.3252   90.7204   13.6329 C.3     1  UNL1        0.1559
     12 C          63.4168   89.6233   13.1623 C.3     1  UNL1        0.1327
     13 H          67.0304   93.2782   16.5936 H       1  UNL1        0.3058
     14 H          64.7703   90.4085   15.7306 H       1  UNL1        0.2454
     15 C          60.3688   88.7778    9.0628 C.ar    1  UNL1        0.2569
     16 N          61.2376   89.6350    9.9348 N.ar    1  UNL1       -0.1768
     17 C          62.2524   88.9998   10.8385 C.ar    1  UNL1        0.2226
     18 N          62.3984   87.5073   10.8702 N.ar    1  UNL1       -0.2155
     19 C          61.5296   86.6500    9.9982 C.ar    1  UNL1        0.0942
     20 C          61.6757   85.1575   10.0299 C.3     1  UNL1        0.0548
     21 C          60.5148   87.2853    9.0945 C.ar    1  UNL1        0.2065
     22 F          59.6461   86.4280    8.2225 F       1  UNL1       -0.1980
     23 C          59.4970   89.2952    6.6707 C.3     1  UNL1        0.2543
     24 O          59.3540   89.4131    8.1592 O.3     1  UNL1       -0.4545
     25 C          63.9701   89.7240   14.6964 C.ar    1  UNL1        0.0406
     26 C          63.2943   90.0292   16.0002 C.ar    1  UNL1        0.0066
     27 C          63.1351   88.7412   16.7526 C.ar    1  UNL1        0.0182
     28 C          63.7126   87.6400   15.9136 C.ar    1  UNL1        0.0868
     29 CL         63.7648   86.1866   16.2810 Cl      1  UNL1       -0.0752
     30 S          64.2287   88.2474   14.6429 S.2     1  UNL1       -0.0768
@<TRIPOS>BOND
     1    23    24    1
     2    24    15    1
     3    15    16   ar
     4    16    17   ar
     5    17     1    1
     6     1     2    1
     7     3     2    1
     8     3     4    1
     9     4     5    2
    10     4     6   am
    11     6     7    1
    12     6     8    1
    13     8     9    2
    14     8    10    1
    15    10    11    1
    16    11    25    1
    17    25    26   ar
    18    26    27   ar
    19    27    28   ar
    20    28    29    1
    21    28    30   ar
    22    11    12    1
    23    17    18   ar
    24    18    19   ar
    25    19    20    1
    26    19    21   ar
    27    21    22    1
    28    21    15   ar
    29    12     1    1
    30    11     3    1
    31    30    25   ar
    32     9    13    1
    33    10    14    1
@<TRIPOS>MOLECULE
*****
 30 33 0 0 0
SMALL
GASTEIGER

@<TRIPOS>ATOM
      1 N          62.4374   89.2404   11.6579 N.pl3   1  UNL1       -0.2740
      2 C          61.5330   89.9613   10.7028 C.3     1  UNL1        0.1079
      3 C          60.9820   88.9546    9.7368 C.3     1  UNL1        0.1498
      4 C          60.0397   89.0875    8.5774 C.2     1  UNL1        0.2919
      5 O          59.4757   90.4305    8.2192 O.2     1  UNL1       -0.2563
      6 N          59.6612   87.8772    7.7761 N.am    1  UNL1       -0.1449
      7 C          58.7188   88.0100    6.6166 C.3     1  UNL1        0.2159
      8 C          60.2251   86.5342    8.1342 C.2     1  UNL1        0.3728
      9 N          59.8467   85.3239    7.3329 N.2     1  UNL1       -0.1329
     10 N          61.1674   86.4014    9.2936 N.pl3   1  UNL1       -0.2247
     11 C          61.5459   87.6116   10.0950 C.3     1  UNL1        0.1559
     12 C          62.4454   87.7882   11.2823 C.3     1  UNL1        0.1327
     13 H          59.2282   85.4110    6.5719 H       1  UNL1        0.3058
     14 H          61.5375   85.5199    9.5287 H       1  UNL1        0.2454
     15 C          63.6349   90.1162   15.3388 C.ar    1  UNL1        0.2569
     16 N          62.8724   89.4942   14.2067 N.ar    1  UNL1       -0.1768
     17 C          63.2000   89.8624   12.7900 C.ar    1  UNL1        0.2226
     18 N          64.2901   90.8526   12.5053 N.ar    1  UNL1       -0.2155
     19 C          65.0527   91.4746   13.6374 C.ar    1  UNL1        0.0942
     20 C          66.1428   92.4648   13.3528 C.3     1  UNL1        0.0548
     21 C          64.7251   91.1064   15.0542 C.ar    1  UNL1        0.2065
     22 F          65.4877   91.7285   16.1862 F       1  UNL1       -0.1980
     23 C          63.0861   88.3112   17.1250 C.3     1  UNL1        0.2543
     24 O          63.3073   89.7480   16.7555 O.3     1  UNL1       -0.4545
     25 C          62.1864   86.3410   10.5695 C.ar    1  UNL1        0.0406
     26 C          62.2440   85.8593   11.9888 C.ar    1  UNL1        0.0066
     27 C          62.9750   84.5495   12.0045 C.ar    1  UNL1        0.0182
     28 C          63.3692   84.2217   10.5949 C.ar    1  UNL1        0.0868
     29 CL         64.1191   83.0011   10.1501 Cl      1  UNL1       -0.0752
     30 S          62.8818   85.3289    9.7080 S.2     1  UNL1       -0.0768
@<TRIPOS>BOND
     1    23    24    1
     2    24    15    1
     3    15    16   ar
     4    16    17   ar
     5    17     1    1
     6     1     2    1
     7     3     2    1
     8     3     4    1
     9     4     5    2
    10     4     6   am
    11     6     7    1
    12     6     8    1
    13     8     9    2
    14     8    10    1
    15    10    11    1
    16    11    25    1
    17    25    26   ar
    18    26    27   ar
    19    27    28   ar
    20    28    29    1
    21    28    30   ar
    22    11    12    1
    23    17    18   ar
    24    18    19   ar
    25    19    20    1
    26    19    21   ar
    27    21    22    1
    28    21    15   ar
    29    12     1    1
    30    11     3    1
    31    30    25   ar
    32     9    13    1
    33    10    14    1
@<TRIPOS>MOLECULE
*****
 30 33 0 0 0
SMALL
GASTEIGER

@<TRIPOS>ATOM
      1 N          62.4488   89.2362   11.6760 N.pl3   1  UNL1       -0.2740
      2 C          61.5477   89.9585   10.7187 C.3     1  UNL1        0.1079
      3 C          60.9985   88.9529    9.7507 C.3     1  UNL1        0.1498
      4 C          60.0596   89.0872    8.5887 C.2     1  UNL1        0.2919
      5 O          59.4979   90.4310    8.2296 O.2     1  UNL1       -0.2563
      6 N          59.6823   87.8777    7.7856 N.am    1  UNL1       -0.1449
      7 C          58.7433   88.0120    6.6235 C.3     1  UNL1        0.2159
      8 C          60.2439   86.5340    8.1447 C.2     1  UNL1        0.3728
      9 N          59.8665   85.3245    7.3416 N.2     1  UNL1       -0.1329
     10 N          61.1828   86.3997    9.3067 N.pl3   1  UNL1       -0.2247
     11 C          61.5601   87.6091   10.1097 C.3     1  UNL1        0.1559
     12 C          62.4565   87.7842   11.2996 C.3     1  UNL1        0.1327
     13 H          59.2503   85.4126    6.5790 H       1  UNL1        0.3058
     14 H          61.5514   85.5177    9.5423 H       1  UNL1        0.2454
     15 C          65.0652   91.4620   13.6637 C.ar    1  UNL1        0.2569
     16 N          64.3052   90.8412   12.5292 N.ar    1  UNL1       -0.1768
     17 C          63.2088   89.8570   12.8105 C.ar    1  UNL1        0.2226
     18 N          62.8723   89.4935   14.2264 N.ar    1  UNL1       -0.2155
     19 C          63.6324   90.1143   15.3609 C.ar    1  UNL1        0.0942
     20 C          63.2959   89.7507   16.7767 C.3     1  UNL1        0.0548
     21 C          64.7288   91.0985   15.0796 C.ar    1  UNL1        0.2065
     22 F          65.4887   91.7192   16.2141 F       1  UNL1       -0.1980
     23 C          67.5960   92.0165   13.4701 C.3     1  UNL1        0.2543
     24 O          66.1616   92.4462   13.3823 O.3     1  UNL1       -0.4545
     25 C          62.1981   86.3376   10.5853 C.ar    1  UNL1        0.0406
     26 C          62.2690   85.8650   12.0071 C.ar    1  UNL1        0.0066
     27 C          62.9919   84.5507   12.0233 C.ar    1  UNL1        0.0182
     28 C          63.3678   84.2112   10.6114 C.ar    1  UNL1        0.0868
     29 CL         64.1049   82.9829   10.1663 Cl      1  UNL1       -0.0752
     30 S          62.8772   85.3155    9.7227 S.2     1  UNL1       -0.0768
@<TRIPOS>BOND
     1    23    24    1
     2    24    15    1
     3    15    16   ar
     4    16    17   ar
     5    17     1    1
     6     1     2    1
     7     3     2    1
     8     3     4    1
     9     4     5    2
    10     4     6   am
    11     6     7    1
    12     6     8    1
    13     8     9    2
    14     8    10    1
    15    10    11    1
    16    11    25    1
    17    25    26   ar
    18    26    27   ar
    19    27    28   ar
    20    28    29    1
    21    28    30   ar
    22    11    12    1
    23    17    18   ar
    24    18    19   ar
    25    19    20    1
    26    19    21   ar
    27    21    22    1
    28    21    15   ar
    29    12     1    1
    30    11     3    1
    31    30    25   ar
    32     9    13    1
    33    10    14    1
@<TRIPOS>MOLECULE
*****
 30 33 0 0 0
SMALL
GASTEIGER

@<TRIPOS>ATOM
      1 N          62.7721   85.0767   12.0301 N.pl3   1  UNL1       -0.2740
      2 C          63.4372   85.9921   13.0148 C.3     1  UNL1        0.1079
      3 C          63.2704   87.3999   12.5247 C.3     1  UNL1        0.1498
      4 C          63.7188   88.7173   13.0845 C.2     1  UNL1        0.2919
      5 O          64.4871   88.7627   14.3721 O.2     1  UNL1       -0.2563
      6 N          63.3989   89.9893   12.3568 N.am    1  UNL1       -0.1449
      7 C          63.8473   91.3068   12.9166 C.3     1  UNL1        0.2159
      8 C          62.6307   89.9440   11.0693 C.2     1  UNL1        0.3728
      9 N          62.3107   91.2161   10.3416 N.2     1  UNL1       -0.1329
     10 N          62.1822   88.6266   10.5095 N.pl3   1  UNL1       -0.2247
     11 C          62.5021   87.3546   11.2372 C.3     1  UNL1        0.1559
     12 C          62.1941   85.9187   10.9315 C.3     1  UNL1        0.1327
     13 H          62.6050   92.0808   10.7089 H       1  UNL1        0.3058
     14 H          61.6780   88.5969    9.6645 H       1  UNL1        0.2454
     15 C          63.0938   81.2366   11.0808 C.ar    1  UNL1        0.2569
     16 N          63.1680   82.7317   10.9840 N.ar    1  UNL1       -0.1768
     17 C          62.6978   83.5816   12.1270 C.ar    1  UNL1        0.2226
     18 N          62.1534   82.9365   13.3670 N.ar    1  UNL1       -0.2155
     19 C          62.0792   81.4415   13.4638 C.ar    1  UNL1        0.0942
     20 C          61.5348   80.7964   14.7037 C.3     1  UNL1        0.0548
     21 C          62.5494   80.5915   12.3208 C.ar    1  UNL1        0.2065
     22 F          62.4752   79.0965   12.4177 F       1  UNL1       -0.1980
     23 C          62.7415   79.2171    9.4848 C.3     1  UNL1        0.2543
     24 O          63.5640   80.3868    9.9378 O.3     1  UNL1       -0.4545
     25 C          61.7303   87.1532    9.9669 C.ar    1  UNL1        0.0406
     26 C          62.0520   86.1627    8.8874 C.ar    1  UNL1        0.0066
     27 C          61.0217   86.3043    7.8063 C.ar    1  UNL1        0.0182
     28 C          60.0633   87.3823    8.2177 C.ar    1  UNL1        0.0868
     29 CL         58.8755   87.8531    7.4319 Cl      1  UNL1       -0.0752
     30 S          60.5012   87.9070    9.5530 S.2     1  UNL1       -0.0768
@<TRIPOS>BOND
     1    23    24    1
     2    24    15    1
     3    15    16   ar
     4    16    17   ar
     5    17     1    1
     6     1     2    1
     7     3     2    1
     8     3     4    1
     9     4     5    2
    10     4     6   am
    11     6     7    1
    12     6     8    1
    13     8     9    2
    14     8    10    1
    15    10    11    1
    16    11    25    1
    17    25    26   ar
    18    26    27   ar
    19    27    28   ar
    20    28    29    1
    21    28    30   ar
    22    11    12    1
    23    17    18   ar
    24    18    19   ar
    25    19    20    1
    26    19    21   ar
    27    21    22    1
    28    21    15   ar
    29    12     1    1
    30    11     3    1
    31    30    25   ar
    32     9    13    1
    33    10    14    1
@<TRIPOS>MOLECULE
*****
 30 33 0 0 0
SMALL
GASTEIGER

@<TRIPOS>ATOM
      1 N          62.7408   85.1340   12.0773 N.pl3   1  UNL1       -0.2740
      2 C          63.4202   86.0338   13.0665 C.3     1  UNL1        0.1079
      3 C          63.2866   87.4454   12.5770 C.3     1  UNL1        0.1498
      4 C          63.7604   88.7522   13.1407 C.2     1  UNL1        0.2919
      5 O          64.5224   88.7798   14.4325 O.2     1  UNL1       -0.2563
      6 N          63.4721   90.0316   12.4125 N.am    1  UNL1       -0.1449
      7 C          63.9459   91.3385   12.9762 C.3     1  UNL1        0.2159
      8 C          62.7101   90.0042   11.1209 C.2     1  UNL1        0.3728
      9 N          62.4219   91.2836   10.3927 N.2     1  UNL1       -0.1329
     10 N          62.2364   88.6973   10.5572 N.pl3   1  UNL1       -0.2247
     11 C          62.5246   87.4180   11.2853 C.3     1  UNL1        0.1559
     12 C          62.1872   85.9894   10.9764 C.3     1  UNL1        0.1327
     13 H          62.7328   92.1413   10.7626 H       1  UNL1        0.3058
     14 H          61.7362   88.6793    9.7094 H       1  UNL1        0.2454
     15 C          61.8394   81.5182   13.4427 C.ar    1  UNL1        0.2569
     16 N          61.9466   83.0114   13.3477 N.ar    1  UNL1       -0.1768
     17 C          62.6337   83.6408   12.1722 C.ar    1  UNL1        0.2226
     18 N          63.2136   82.7771   11.0916 N.ar    1  UNL1       -0.2155
     19 C          63.1064   81.2839   11.1866 C.ar    1  UNL1        0.0942
     20 C          63.6863   80.4202   10.1061 C.3     1  UNL1        0.0548
     21 C          62.4193   80.6545   12.3621 C.ar    1  UNL1        0.2065
     22 F          62.3122   79.1613   12.4570 F       1  UNL1       -0.1980
     23 C          59.8148   80.2331   14.4424 C.3     1  UNL1        0.2543
     24 O          61.1524   80.8889   14.6182 O.3     1  UNL1       -0.4545
     25 C          61.7556   87.2346   10.0106 C.ar    1  UNL1        0.0406
     26 C          62.0888   86.2705    8.9108 C.ar    1  UNL1        0.0066
     27 C          61.0574   86.4231    7.8323 C.ar    1  UNL1        0.0182
     28 C          60.0869   87.4815    8.2655 C.ar    1  UNL1        0.0868
     29 CL         58.8942   87.9553    7.4889 Cl      1  UNL1       -0.0752
     30 S          60.5183   87.9830    9.6118 S.2     1  UNL1       -0.0768
@<TRIPOS>BOND
     1    23    24    1
     2    24    15    1
     3    15    16   ar
     4    16    17   ar
     5    17     1    1
     6     1     2    1
     7     3     2    1
     8     3     4    1
     9     4     5    2
    10     4     6   am
    11     6     7    1
    12     6     8    1
    13     8     9    2
    14     8    10    1
    15    10    11    1
    16    11    25    1
    17    25    26   ar
    18    26    27   ar
    19    27    28   ar
    20    28    29    1
    21    28    30   ar
    22    11    12    1
    23    17    18   ar
    24    18    19   ar
    25    19    20    1
    26    19    21   ar
    27    21    22    1
    28    21    15   ar
    29    12     1    1
    30    11     3    1
    31    30    25   ar
    32     9    13    1
    33    10    14    1
@<TRIPOS>MOLECULE
*****
 30 33 0 0 0
SMALL
GASTEIGER

@<TRIPOS>ATOM
      1 N          63.4806   86.5451   13.2934 N.pl3   1  UNL1       -0.2740
      2 C          63.7173   85.4488   14.2894 C.3     1  UNL1        0.1079
      3 C          63.4964   84.1371   13.5960 C.3     1  UNL1        0.1498
      4 C          63.5869   82.7195   14.0778 C.2     1  UNL1        0.2919
      5 O          63.9600   82.4337   15.5023 O.2     1  UNL1       -0.2563
      6 N          63.3042   81.5875   13.1350 N.am    1  UNL1       -0.1449
      7 C          63.3947   80.1698   13.6168 C.3     1  UNL1        0.2159
      8 C          62.9311   81.8732   11.7106 C.2     1  UNL1        0.3728
      9 N          62.6484   80.7412   10.7678 N.2     1  UNL1       -0.1329
     10 N          62.8406   83.2908   11.2288 N.pl3   1  UNL1       -0.2247
     11 C          63.1233   84.4228   12.1716 C.3     1  UNL1        0.1559
     12 C          63.1135   85.9110   11.9845 C.3     1  UNL1        0.1327
     13 H          62.7077   79.8107   11.0839 H       1  UNL1        0.3058
     14 H          62.5957   83.4783   10.2939 H       1  UNL1        0.2454
     15 C          63.8190   90.4516   12.6809 C.ar    1  UNL1        0.2569
     16 N          63.7081   88.9796   12.4149 N.ar    1  UNL1       -0.1768
     17 C          63.5916   88.0171   13.5595 C.ar    1  UNL1        0.2226
     18 N          63.5860   88.5268   14.9703 N.ar    1  UNL1       -0.2155
     19 C          63.6970   89.9989   15.2363 C.ar    1  UNL1        0.0942
     20 C          63.6915   90.5085   16.6471 C.3     1  UNL1        0.0548
     21 C          63.8135   90.9613   14.0917 C.ar    1  UNL1        0.2065
     22 F          63.9245   92.4333   14.3578 F       1  UNL1       -0.1980
     23 C          63.1080   91.2142   10.3012 C.3     1  UNL1        0.2543
     24 O          63.9355   91.4140   11.5363 O.3     1  UNL1       -0.4545
     25 C          62.7638   84.8608   10.7827 C.ar    1  UNL1        0.0406
     26 C          63.5020   84.5037    9.5268 C.ar    1  UNL1        0.0066
     27 C          62.7974   85.1550    8.3738 C.ar    1  UNL1        0.0182
     28 C          61.6237   85.9146    8.9171 C.ar    1  UNL1        0.0868
     29 CL         60.6429   86.7155    8.1129 Cl      1  UNL1       -0.0752
     30 S          61.6029   85.7328   10.4059 S.2     1  UNL1       -0.0768
@<TRIPOS>BOND
     1    23    24    1
     2    24    15    1
     3    15    16   ar
     4    16    17   ar
     5    17     1    1
     6     1     2    1
     7     3     2    1
     8     3     4    1
     9     4     5    2
    10     4     6   am
    11     6     7    1
    12     6     8    1
    13     8     9    2
    14     8    10    1
    15    10    11    1
    16    11    25    1
    17    25    26   ar
    18    26    27   ar
    19    27    28   ar
    20    28    29    1
    21    28    30   ar
    22    11    12    1
    23    17    18   ar
    24    18    19   ar
    25    19    20    1
    26    19    21   ar
    27    21    22    1
    28    21    15   ar
    29    12     1    1
    30    11     3    1
    31    30    25   ar
    32     9    13    1
    33    10    14    1
@<TRIPOS>MOLECULE
*****
 30 33 0 0 0
SMALL
GASTEIGER

@<TRIPOS>ATOM
      1 N          64.2007   89.1576   14.1725 N.pl3   1  UNL1       -0.2740
      2 C          65.2152   90.1307   14.6957 C.3     1  UNL1        0.1079
      3 C          65.2939   91.2797   13.7347 C.3     1  UNL1        0.1498
      4 C          66.1202   92.5316   13.7326 C.2     1  UNL1        0.2919
      5 O          67.0861   92.7947   14.8497 O.2     1  UNL1       -0.2563
      6 N          65.9807   93.5204   12.6132 N.am    1  UNL1       -0.1449
      7 C          66.8071   94.7723   12.6111 C.3     1  UNL1        0.2159
      8 C          65.0149   93.2574   11.4962 C.2     1  UNL1        0.3728
      9 N          64.8754   94.2462   10.3768 N.2     1  UNL1       -0.1329
     10 N          64.1885   92.0055   11.4983 N.pl3   1  UNL1       -0.2247
     11 C          64.3280   91.0167   12.6176 C.3     1  UNL1        0.1559
     12 C          63.6524   89.7051   12.8882 C.3     1  UNL1        0.1327
     13 H          65.4177   95.0678   10.3754 H       1  UNL1        0.3058
     14 H          63.5546   91.8329   10.7651 H       1  UNL1        0.2454
     15 C          63.3826   85.3051   14.6619 C.ar    1  UNL1        0.2569
     16 N          63.7792   86.5988   14.0145 N.ar    1  UNL1       -0.1768
     17 C          63.8041   87.8639   14.8200 C.ar    1  UNL1        0.2226
     18 N          63.4325   87.8354   16.2729 N.ar    1  UNL1       -0.2155
     19 C          63.0359   86.5416   16.9203 C.ar    1  UNL1        0.0942
     20 C          62.6643   86.5131   18.3733 C.3     1  UNL1        0.0548
     21 C          63.0110   85.2765   16.1148 C.ar    1  UNL1        0.2065
     22 F          62.6144   83.9829   16.7623 F       1  UNL1       -0.1980
     23 C          64.5616   83.6350   13.0585 C.3     1  UNL1        0.2543
     24 O          63.3577   84.0400   13.8564 O.3     1  UNL1       -0.4545
     25 C          63.3260   90.6199   11.5743 C.ar    1  UNL1        0.0406
     26 C          63.3926   90.9576   10.1144 C.ar    1  UNL1        0.0066
     27 C          62.1892   90.3621    9.4455 C.ar    1  UNL1        0.0182
     28 C          61.3789   89.6564   10.4921 C.ar    1  UNL1        0.0868
     29 CL         60.0919   88.9206   10.2633 Cl      1  UNL1       -0.0752
     30 S          62.0815   89.8158   11.8078 S.2     1  UNL1       -0.0768
@<TRIPOS>BOND
     1    23    24    1
     2    24    15    1
     3    15    16   ar
     4    16    17   ar
     5    17     1    1
     6     1     2    1
     7     3     2    1
     8     3     4    1
     9     4     5    2
    10     4     6   am
    11     6     7    1
    12     6     8    1
    13     8     9    2
    14     8    10    1
    15    10    11    1
    16    11    25    1
    17    25    26   ar
    18    26    27   ar
    19    27    28   ar
    20    28    29    1
    21    28    30   ar
    22    11    12    1
    23    17    18   ar
    24    18    19   ar
    25    19    20    1
    26    19    21   ar
    27    21    22    1
    28    21    15   ar
    29    12     1    1
    30    11     3    1
    31    30    25   ar
    32     9    13    1
    33    10    14    1
@<TRIPOS>MOLECULE
*****
 30 33 0 0 0
SMALL
GASTEIGER

@<TRIPOS>ATOM
      1 N          63.5479   86.7988   12.9136 N.pl3   1  UNL1       -0.2740
      2 C          63.7482   85.8491   14.0572 C.3     1  UNL1        0.1079
      3 C          63.4769   84.4604   13.5594 C.3     1  UNL1        0.1498
      4 C          63.5174   83.1244   14.2401 C.2     1  UNL1        0.2919
      5 O          63.8855   83.0329   15.6915 O.2     1  UNL1       -0.2563
      6 N          63.1899   81.8798   13.4695 N.am    1  UNL1       -0.1449
      7 C          63.2304   80.5437   14.1503 C.3     1  UNL1        0.2159
      8 C          62.8219   81.9712   12.0183 C.2     1  UNL1        0.3728
      9 N          62.4944   80.7266   11.2477 N.2     1  UNL1       -0.1329
     10 N          62.7814   83.3072   11.3376 N.pl3   1  UNL1       -0.2247
     11 C          63.1089   84.5518   12.1081 C.3     1  UNL1        0.1559
     12 C          63.1528   85.9971   11.7090 C.3     1  UNL1        0.1327
     13 H          62.5210   79.8497   11.6944 H       1  UNL1        0.3058
     14 H          62.5399   83.3672   10.3850 H       1  UNL1        0.2454
     15 C          64.4275   90.4298   14.2525 C.ar    1  UNL1        0.2569
     16 N          64.2618   88.9399   14.2005 N.ar    1  UNL1       -0.1768
     17 C          63.7136   88.2887   12.9654 C.ar    1  UNL1        0.2226
     18 N          63.3311   89.1275   11.7822 N.ar    1  UNL1       -0.2155
     19 C          63.4968   90.6175   11.8341 C.ar    1  UNL1        0.0942
     20 C          63.1143   91.4563   10.6509 C.3     1  UNL1        0.0548
     21 C          64.0450   91.2686   13.0692 C.ar    1  UNL1        0.2065
     22 F          64.2107   92.7585   13.1210 F       1  UNL1       -0.1980
     23 C          66.1247   92.0395   15.3832 C.3     1  UNL1        0.2543
     24 O          64.9757   91.0808   15.4876 O.3     1  UNL1       -0.4545
     25 C          62.7603   84.7985   10.6702 C.ar    1  UNL1        0.0406
     26 C          63.5170   84.2890    9.4796 C.ar    1  UNL1        0.0066
     27 C          62.8181   84.7736    8.2439 C.ar    1  UNL1        0.0182
     28 C          61.6293   85.5826    8.6710 C.ar    1  UNL1        0.0868
     29 CL         60.6485   86.2577    7.7587 Cl      1  UNL1       -0.0752
     30 S          61.5936   85.5980   10.1705 S.2     1  UNL1       -0.0768
@<TRIPOS>BOND
     1    23    24    1
     2    24    15    1
     3    15    16   ar
     4    16    17   ar
     5    17     1    1
     6     1     2    1
     7     3     2    1
     8     3     4    1
     9     4     5    2
    10     4     6   am
    11     6     7    1
    12     6     8    1
    13     8     9    2
    14     8    10    1
    15    10    11    1
    16    11    25    1
    17    25    26   ar
    18    26    27   ar
    19    27    28   ar
    20    28    29    1
    21    28    30   ar
    22    11    12    1
    23    17    18   ar
    24    18    19   ar
    25    19    20    1
    26    19    21   ar
    27    21    22    1
    28    21    15   ar
    29    12     1    1
    30    11     3    1
    31    30    25   ar
    32     9    13    1
    33    10    14    1
