@<TRIPOS>MOLECULE
*****
 36 41 0 0 0
SMALL
GASTEIGER

@<TRIPOS>ATOM
      1 N          63.8805   86.7355   14.1121 N.pl3   1  UNL1       -0.2543
      2 C          64.5271   87.7943   13.2691 C.3     1  UNL1        0.1203
      3 C          64.7378   89.1713   13.8256 C.3     1  UNL1        0.1216
      4 N          64.3019   89.4894   15.2251 N.am    1  UNL1       -0.2401
      5 C          64.5126   90.8663   15.7816 C.2     1  UNL1        0.3110
      6 O          64.0765   91.1844   17.1812 O.2     1  UNL1       -0.2520
      7 N          65.1592   91.9251   14.9386 N.am    1  UNL1       -0.2635
      8 C          65.4341   93.3392   15.3567 C.3     1  UNL1        0.0954
      9 C          66.0893   94.0438   14.2060 C.3     1  UNL1        0.0274
     10 C          66.2194   93.0651   13.0766 C.3     1  UNL1        0.0434
     11 C          65.6446   91.7557   13.5294 C.3     1  UNL1        0.0991
     12 C          63.6552   88.4306   16.0682 C.ar    1  UNL1        0.0690
     13 C          63.2192   88.7487   17.4677 C.ar    1  UNL1        0.0162
     14 C          62.5725   87.6899   18.3107 C.ar    1  UNL1        0.0014
     15 C          62.3618   86.3130   17.7542 C.ar    1  UNL1        0.0014
     16 C          62.7978   85.9949   16.3547 C.ar    1  UNL1        0.0162
     17 C          63.4445   87.0536   15.5117 C.ar    1  UNL1        0.0678
     18 C          63.2484   82.6048   12.4427 C.ar    1  UNL1        0.0384
     19 C          64.2749   82.8324   13.5124 C.ar    1  UNL1        0.1033
     20 N          64.4856   84.2093   14.0689 N.ar    1  UNL1       -0.2118
     21 C          63.6698   85.3586   13.5556 C.ar    1  UNL1        0.2241
     22 N          62.6432   85.1310   12.4858 N.ar    1  UNL1       -0.2118
     23 C          62.4325   83.7541   11.9293 C.ar    1  UNL1        0.1033
     24 C          62.6163   78.4740   10.7732 C.ar    1  UNL1        0.1387
     25 C          62.9939   79.6024    9.8598 C.ar    1  UNL1        0.0369
     26 C          63.2046   80.9793   10.4163 C.ar    1  UNL1        0.0032
     27 C          63.0377   81.2278   11.8862 C.ar    1  UNL1        0.0032
     28 C          62.6602   80.0995   12.7995 C.ar    1  UNL1        0.0032
     29 C          62.4495   78.7225   12.2430 C.ar    1  UNL1        0.0369
     30 C          63.5832   76.2048    9.9570 C.3     1  UNL1        0.2525
     31 O          62.4056   77.0971   10.2167 O.3     1  UNL1       -0.4714
     32 C          66.8190   93.3465   11.7308 C.2     1  UNL1        0.0041
     33 C          67.6121   92.3818   10.8998 C.2     1  UNL1        0.1152
     34 N          68.0141   93.0810    9.6351 N.2     1  UNL1       -0.1514
     35 N          67.4695   94.4779    9.6844 N.2     1  UNL1       -0.1699
     36 C          66.7310   94.6418   10.9797 C.3     1  UNL1        0.1729
@<TRIPOS>BOND
     1    30    31    1
     2    31    24    1
     3    24    25   ar
     4    25    26   ar
     5    26    27   ar
     6    27    18    1
     7    18    19   ar
     8    19    20   ar
     9    20    21   ar
    10    21     1    1
    11     1     2    1
    12     2     3    1
    13     3     4    1
    14     4     5   am
    15     5     6    2
    16     5     7   am
    17     7     8    1
    18     8     9    1
    19     9    10    1
    20    10    32    1
    21    32    33    2
    22    33    34    1
    23    34    35    2
    24    35    36    1
    25    10    11    1
    26     4    12    1
    27    12    13   ar
    28    13    14   ar
    29    14    15   ar
    30    15    16   ar
    31    16    17   ar
    32    21    22   ar
    33    22    23   ar
    34    27    28   ar
    35    28    29   ar
    36    29    24   ar
    37    23    18   ar
    38    17     1    1
    39    11     7    1
    40    17    12   ar
    41    36    32    1
@<TRIPOS>MOLECULE
*****
 36 41 0 0 0
SMALL
GASTEIGER

@<TRIPOS>ATOM
      1 N          60.8561   90.3541    7.3110 N.pl3   1  UNL1       -0.2543
      2 C          61.8238   91.0049    8.2543 C.3     1  UNL1        0.1203
      3 C          62.1533   90.3481    9.5621 C.3     1  UNL1        0.1216
      4 N          61.5149   89.0406    9.9265 N.am    1  UNL1       -0.2401
      5 C          61.8443   88.3839   11.2342 C.2     1  UNL1        0.3110
      6 O          61.2059   87.0763   11.5986 O.2     1  UNL1       -0.2520
      7 N          62.8121   89.0346   12.1775 N.am    1  UNL1       -0.2635
      8 C          63.2367   88.4996   13.5130 C.3     1  UNL1        0.0954
      9 C          64.2123   89.4690   14.1119 C.3     1  UNL1        0.0274
     10 C          64.3906   90.6031   13.1464 C.3     1  UNL1        0.0434
     11 C          63.5253   90.3346   11.9509 C.3     1  UNL1        0.0991
     12 C          60.5471   88.3898    8.9832 C.ar    1  UNL1        0.0690
     13 C          59.9087   87.0823    9.3476 C.ar    1  UNL1        0.0162
     14 C          58.9409   86.4315    8.4043 C.ar    1  UNL1        0.0014
     15 C          58.6115   87.0882    7.0966 C.ar    1  UNL1        0.0014
     16 C          59.2498   88.3958    6.7322 C.ar    1  UNL1        0.0162
     17 C          60.2176   89.0465    7.6755 C.ar    1  UNL1        0.0678
     18 C          59.8678   92.3244    3.3878 C.ar    1  UNL1        0.0384
     19 C          58.7890   92.0941    4.4043 C.ar    1  UNL1        0.1033
     20 N          59.1184   91.4374    5.7120 N.ar    1  UNL1       -0.2118
     21 C          60.5266   91.0109    6.0033 C.ar    1  UNL1        0.2241
     22 N          61.6055   91.2411    4.9869 N.ar    1  UNL1       -0.2118
     23 C          61.2761   91.8978    3.6791 C.ar    1  UNL1        0.1033
     24 C          58.8795   94.2946   -0.5353 C.ar    1  UNL1        0.1387
     25 C          59.6599   95.0432    0.5043 C.ar    1  UNL1        0.0369
     26 C          59.9893   94.3864    1.8120 C.ar    1  UNL1        0.0032
     27 C          59.5383   92.9811    2.0801 C.ar    1  UNL1        0.0032
     28 C          58.7579   92.2326    1.0406 C.ar    1  UNL1        0.0032
     29 C          58.4285   92.8894   -0.2672 C.ar    1  UNL1        0.0369
     30 C          57.4021   94.4479   -2.6670 C.3     1  UNL1        0.2525
     31 O          58.5500   94.9514   -1.8431 O.3     1  UNL1       -0.4714
     32 C          65.2784   91.7962   13.3421 C.2     1  UNL1        0.0041
     33 C          65.6648   92.7902   12.2872 C.2     1  UNL1        0.1152
     34 N          66.5609   93.8131   12.9202 N.2     1  UNL1       -0.1514
     35 N          66.7284   93.4513   14.3662 N.2     1  UNL1       -0.1699
     36 C          65.9358   92.2048   14.6269 C.3     1  UNL1        0.1729
@<TRIPOS>BOND
     1    30    31    1
     2    31    24    1
     3    24    25   ar
     4    25    26   ar
     5    26    27   ar
     6    27    18    1
     7    18    19   ar
     8    19    20   ar
     9    20    21   ar
    10    21     1    1
    11     1     2    1
    12     2     3    1
    13     3     4    1
    14     4     5   am
    15     5     6    2
    16     5     7   am
    17     7     8    1
    18     8     9    1
    19     9    10    1
    20    10    32    1
    21    32    33    2
    22    33    34    1
    23    34    35    2
    24    35    36    1
    25    10    11    1
    26     4    12    1
    27    12    13   ar
    28    13    14   ar
    29    14    15   ar
    30    15    16   ar
    31    16    17   ar
    32    21    22   ar
    33    22    23   ar
    34    27    28   ar
    35    28    29   ar
    36    29    24   ar
    37    23    18   ar
    38    17     1    1
    39    11     7    1
    40    17    12   ar
    41    36    32    1
@<TRIPOS>MOLECULE
*****
 36 41 0 0 0
SMALL
GASTEIGER

@<TRIPOS>ATOM
      1 N          62.2394   87.9715   10.7433 N.pl3   1  UNL1       -0.2543
      2 C          62.1795   86.4765   10.8498 C.3     1  UNL1        0.1203
      3 C          62.7500   85.7869   12.0535 C.3     1  UNL1        0.1216
      4 N          63.3804   86.5922   13.1507 N.am    1  UNL1       -0.2401
      5 C          63.9509   85.9026   14.3544 C.2     1  UNL1        0.3110
      6 O          64.5814   86.7080   15.4517 O.2     1  UNL1       -0.2520
      7 N          63.8910   84.4076   14.4609 N.am    1  UNL1       -0.2635
      8 C          64.4167   83.5829   15.5983 C.3     1  UNL1        0.0954
      9 C          64.1454   82.1404   15.2891 C.3     1  UNL1        0.0274
     10 C          63.4520   82.0736   13.9606 C.3     1  UNL1        0.0434
     11 C          63.2948   83.4748   13.4488 C.3     1  UNL1        0.0991
     12 C          63.4404   88.0873   13.0443 C.ar    1  UNL1        0.0690
     13 C          64.0708   88.8926   14.1415 C.ar    1  UNL1        0.0162
     14 C          64.1308   90.3876   14.0350 C.ar    1  UNL1        0.0014
     15 C          63.5603   91.0772   12.8313 C.ar    1  UNL1        0.0014
     16 C          62.9298   90.2719   11.7341 C.ar    1  UNL1        0.0162
     17 C          62.8699   88.7769   11.8406 C.ar    1  UNL1        0.0678
     18 C          60.5279   90.0404    7.1322 C.ar    1  UNL1        0.0384
     19 C          61.5116   90.7555    8.0103 C.ar    1  UNL1        0.1033
     20 N          62.0821   90.0658    9.2140 N.ar    1  UNL1       -0.2118
     21 C          61.6689   88.6611    9.5396 C.ar    1  UNL1        0.2241
     22 N          60.6852   87.9460    8.6615 N.ar    1  UNL1       -0.2118
     23 C          60.1147   88.6357    7.4578 C.ar    1  UNL1        0.1033
     24 C          58.8164   92.1094    3.5210 C.ar    1  UNL1        0.1387
     25 C          60.3020   91.9619    3.6670 C.ar    1  UNL1        0.0369
     26 C          60.8725   91.2722    4.8707 C.ar    1  UNL1        0.0032
     27 C          59.9574   90.7301    5.9285 C.ar    1  UNL1        0.0032
     28 C          58.4719   90.8776    5.7825 C.ar    1  UNL1        0.0032
     29 C          57.9014   91.5673    4.5787 C.ar    1  UNL1        0.0369
     30 C          59.1370   93.1551    1.1644 C.3     1  UNL1        0.2525
     31 O          58.2459   92.7990    2.3173 O.3     1  UNL1       -0.4714
     32 C          62.9960   80.8248   13.2658 C.2     1  UNL1        0.0041
     33 C          62.3323   79.6468   13.9153 C.2     1  UNL1        0.1152
     34 N          62.0497   78.6288   12.8506 N.2     1  UNL1       -0.1514
     35 N          62.5387   79.1776   11.5430 N.2     1  UNL1       -0.1699
     36 C          63.1235   80.5348   11.7997 C.3     1  UNL1        0.1729
@<TRIPOS>BOND
     1    30    31    1
     2    31    24    1
     3    24    25   ar
     4    25    26   ar
     5    26    27   ar
     6    27    18    1
     7    18    19   ar
     8    19    20   ar
     9    20    21   ar
    10    21     1    1
    11     1     2    1
    12     2     3    1
    13     3     4    1
    14     4     5   am
    15     5     6    2
    16     5     7   am
    17     7     8    1
    18     8     9    1
    19     9    10    1
    20    10    32    1
    21    32    33    2
    22    33    34    1
    23    34    35    2
    24    35    36    1
    25    10    11    1
    26     4    12    1
    27    12    13   ar
    28    13    14   ar
    29    14    15   ar
    30    15    16   ar
    31    16    17   ar
    32    21    22   ar
    33    22    23   ar
    34    27    28   ar
    35    28    29   ar
    36    29    24   ar
    37    23    18   ar
    38    17     1    1
    39    11     7    1
    40    17    12   ar
    41    36    32    1
