@<TRIPOS>MOLECULE
*****
 17 18 0 0 0
SMALL
GASTEIGER

@<TRIPOS>ATOM
      1 C          66.1223   93.2090   12.5406 C.ar    1  UNL1        0.1386
      2 C          65.0278   92.3887   11.9249 C.ar    1  UNL1        0.0370
      3 C          64.3848   91.2850   12.7112 C.ar    1  UNL1        0.0062
      4 C          64.8362   91.0016   14.1133 C.ar    1  UNL1        0.0373
      5 C          65.9307   91.8219   14.7290 C.ar    1  UNL1        0.0062
      6 C          66.5737   92.9256   13.9427 C.ar    1  UNL1        0.0370
      7 C          64.1932   89.8979   14.8996 C.ar    1  UNL1        0.1806
      8 N          64.3319   88.4284   14.6324 N.ar    1  UNL1       -0.1084
      9 N          63.5230   87.6922   15.6589 N.ar    1  UNL1       -0.0229
     10 N          62.8842   88.7067   16.5604 N.ar    1  UNL1       -0.0464
     11 N          63.2984   90.0699   16.0912 N.ar    1  UNL1       -0.2388
     12 H          63.0301   90.9269   16.4945 H       1  UNL1        0.1923
     13 O          66.7653   94.3128   11.7543 O.3     1  UNL1       -0.4755
     14 C          66.5445   94.4058   10.2736 C.3     1  UNL1        0.2054
     15 C          67.7174   94.4007    9.3385 C.3     1  UNL1        0.0473
     16 C          68.1906   91.8870    9.7943 C.3     1  UNL1        0.0001
     17 C          68.3420   93.1008    8.9260 C.3     1  UNL1        0.0038
@<TRIPOS>BOND
     1    16    17    1
     2    17    15    1
     3    15    14    1
     4    14    13    1
     5    13     1    1
     6     1     2   ar
     7     2     3   ar
     8     3     4   ar
     9     4     7    1
    10     7     8   ar
    11     8     9   ar
    12     9    10   ar
    13    10    11   ar
    14     4     5   ar
    15     5     6   ar
    16     6     1   ar
    17    11     7   ar
    18    11    12    1
@<TRIPOS>MOLECULE
*****
 17 18 0 0 0
SMALL
GASTEIGER

@<TRIPOS>ATOM
      1 C          65.4784   92.6077   11.8090 C.ar    1  UNL1        0.1386
      2 C          65.1798   91.8343   13.0591 C.ar    1  UNL1        0.0370
      3 C          64.0623   90.8339   13.0732 C.ar    1  UNL1        0.0062
      4 C          63.2433   90.6068   11.8373 C.ar    1  UNL1        0.0373
      5 C          63.5418   91.3802   10.5872 C.ar    1  UNL1        0.0062
      6 C          64.6594   92.3806   10.5731 C.ar    1  UNL1        0.0370
      7 C          62.1257   89.6064   11.8514 C.ar    1  UNL1        0.1806
      8 N          62.2307   88.1616   11.4622 N.ar    1  UNL1       -0.1084
      9 N          60.8768   87.5374   11.6275 N.ar    1  UNL1       -0.0229
     10 N          59.9350   88.5964   12.1189 N.ar    1  UNL1       -0.0464
     11 N          60.7069   89.8751   12.2573 N.ar    1  UNL1       -0.2388
     12 H          60.3456   90.7390   12.5612 H       1  UNL1        0.1923
     13 O          66.5959   93.6081   11.7949 O.3     1  UNL1       -0.4755
     14 C          66.5807   94.7357   10.8058 C.3     1  UNL1        0.2054
     15 C          67.5893   94.7738    9.6962 C.3     1  UNL1        0.0473
     16 C          68.7572   92.4788    9.3512 C.3     1  UNL1        0.0001
     17 C          67.8312   93.5520    8.8603 C.3     1  UNL1        0.0038
@<TRIPOS>BOND
     1    16    17    1
     2    17    15    1
     3    15    14    1
     4    14    13    1
     5    13     1    1
     6     1     2   ar
     7     2     3   ar
     8     3     4   ar
     9     4     7    1
    10     7     8   ar
    11     8     9   ar
    12     9    10   ar
    13    10    11   ar
    14     4     5   ar
    15     5     6   ar
    16     6     1   ar
    17    11     7   ar
    18    11    12    1
@<TRIPOS>MOLECULE
*****
 17 18 0 0 0
SMALL
GASTEIGER

@<TRIPOS>ATOM
      1 C          62.2213   89.8357   11.7442 C.ar    1  UNL1        0.1386
      2 C          62.3677   90.4779   10.3966 C.ar    1  UNL1        0.0370
      3 C          63.4789   91.4544   10.1479 C.ar    1  UNL1        0.0062
      4 C          64.4435   91.7887   11.2468 C.ar    1  UNL1        0.0373
      5 C          64.2970   91.1465   12.5944 C.ar    1  UNL1        0.0062
      6 C          63.1859   90.1700   12.8431 C.ar    1  UNL1        0.0370
      7 C          65.5547   92.7652   10.9981 C.ar    1  UNL1        0.1806
      8 N          66.8675   92.4583   10.3406 N.ar    1  UNL1       -0.1084
      9 N          67.6723   93.7234   10.2994 N.ar    1  UNL1       -0.0229
     10 N          66.8568   94.8123   10.9315 N.ar    1  UNL1       -0.0464
     11 N          65.5481   94.2200   11.3633 N.ar    1  UNL1       -0.2388
     12 H          64.8138   94.7016   11.8083 H       1  UNL1        0.1923
     13 O          61.1101   88.8592   11.9929 O.3     1  UNL1       -0.4755
     14 C          60.5422   88.0636   10.8552 C.3     1  UNL1        0.2054
     15 C          61.2174   86.7989   10.4137 C.3     1  UNL1        0.0473
     16 C          62.8168   85.5550    8.7874 C.3     1  UNL1        0.0001
     17 C          62.0683   86.7948    9.1784 C.3     1  UNL1        0.0038
@<TRIPOS>BOND
     1    16    17    1
     2    17    15    1
     3    15    14    1
     4    14    13    1
     5    13     1    1
     6     1     2   ar
     7     2     3   ar
     8     3     4   ar
     9     4     7    1
    10     7     8   ar
    11     8     9   ar
    12     9    10   ar
    13    10    11   ar
    14     4     5   ar
    15     5     6   ar
    16     6     1   ar
    17    11     7   ar
    18    11    12    1
@<TRIPOS>MOLECULE
*****
 17 18 0 0 0
SMALL
GASTEIGER

@<TRIPOS>ATOM
      1 C          63.2065   89.7665   12.6137 C.ar    1  UNL1        0.1386
      2 C          63.6834   91.0128   11.9287 C.ar    1  UNL1        0.0370
      3 C          64.8189   91.8011   12.5112 C.ar    1  UNL1        0.0062
      4 C          65.4774   91.3432   13.7787 C.ar    1  UNL1        0.0373
      5 C          65.0005   90.0969   14.4637 C.ar    1  UNL1        0.0062
      6 C          63.8650   89.3086   13.8812 C.ar    1  UNL1        0.0370
      7 C          66.6129   92.1315   14.3611 C.ar    1  UNL1        0.1806
      8 N          68.0333   92.1192   13.8793 N.ar    1  UNL1       -0.1084
      9 N          68.8256   93.0506   14.7481 N.ar    1  UNL1       -0.0229
     10 N          67.8948   93.6385   15.7669 N.ar    1  UNL1       -0.0464
     11 N          66.5273   93.0705   15.5277 N.ar    1  UNL1       -0.2388
     12 H          65.7160   93.2776   16.0455 H       1  UNL1        0.1923
     13 O          62.0710   88.9782   12.0312 O.3     1  UNL1       -0.4755
     14 C          62.1727   88.4349   10.6368 C.3     1  UNL1        0.2054
     15 C          62.1314   86.9537   10.4041 C.3     1  UNL1        0.0473
     16 C          62.9400   85.4317    8.4599 C.3     1  UNL1        0.0001
     17 C          61.9546   86.4174    9.0144 C.3     1  UNL1        0.0038
@<TRIPOS>BOND
     1    16    17    1
     2    17    15    1
     3    15    14    1
     4    14    13    1
     5    13     1    1
     6     1     2   ar
     7     2     3   ar
     8     3     4   ar
     9     4     7    1
    10     7     8   ar
    11     8     9   ar
    12     9    10   ar
    13    10    11   ar
    14     4     5   ar
    15     5     6   ar
    16     6     1   ar
    17    11     7   ar
    18    11    12    1
@<TRIPOS>MOLECULE
*****
 17 18 0 0 0
SMALL
GASTEIGER

@<TRIPOS>ATOM
      1 C          64.3401   91.0038   14.1568 C.ar    1  UNL1        0.1386
      2 C          65.7164   91.4231   14.5809 C.ar    1  UNL1        0.0370
      3 C          66.6374   92.0796   13.5955 C.ar    1  UNL1        0.0062
      4 C          66.1821   92.3166   12.1861 C.ar    1  UNL1        0.0373
      5 C          64.8058   91.8972   11.7621 C.ar    1  UNL1        0.0062
      6 C          63.8848   91.2408   12.7474 C.ar    1  UNL1        0.0370
      7 C          67.1031   92.9730   11.2008 C.ar    1  UNL1        0.1806
      8 N          66.9893   94.3782   10.6883 N.ar    1  UNL1       -0.1084
      9 N          68.1154   94.6132    9.7257 N.ar    1  UNL1       -0.0229
     10 N          68.9252   93.3533    9.6433 N.ar    1  UNL1       -0.0464
     11 N          68.2996   92.3396   10.5549 N.ar    1  UNL1       -0.2388
     12 H          68.6183   91.4200   10.7033 H       1  UNL1        0.1923
     13 O          63.4191   90.3473   15.1421 O.3     1  UNL1       -0.4755
     14 C          63.6529   88.9242   15.5543 C.3     1  UNL1        0.2054
     15 C          64.3858   87.9889   14.6388 C.3     1  UNL1        0.0473
     16 C          63.6985   85.9820   16.1387 C.3     1  UNL1        0.0001
     17 C          64.4045   86.5172   14.9283 C.3     1  UNL1        0.0038
@<TRIPOS>BOND
     1    16    17    1
     2    17    15    1
     3    15    14    1
     4    14    13    1
     5    13     1    1
     6     1     2   ar
     7     2     3   ar
     8     3     4   ar
     9     4     7    1
    10     7     8   ar
    11     8     9   ar
    12     9    10   ar
    13    10    11   ar
    14     4     5   ar
    15     5     6   ar
    16     6     1   ar
    17    11     7   ar
    18    11    12    1
@<TRIPOS>MOLECULE
*****
 17 18 0 0 0
SMALL
GASTEIGER

@<TRIPOS>ATOM
      1 C          65.8340   92.7435   10.8175 C.ar    1  UNL1        0.1386
      2 C          66.4722   92.8810   12.1679 C.ar    1  UNL1        0.0370
      3 C          65.8065   92.2910   13.3757 C.ar    1  UNL1        0.0062
      4 C          64.5026   91.5635   13.2330 C.ar    1  UNL1        0.0373
      5 C          63.8643   91.4260   11.8826 C.ar    1  UNL1        0.0062
      6 C          64.5301   92.0160   10.6748 C.ar    1  UNL1        0.0370
      7 C          63.8368   90.9736   14.4408 C.ar    1  UNL1        0.1806
      8 N          64.0112   91.4350   15.8574 N.ar    1  UNL1       -0.1084
      9 N          63.1620   90.5652   16.7362 N.ar    1  UNL1       -0.0229
     10 N          62.4627   89.5661   15.8627 N.ar    1  UNL1       -0.0464
     11 N          62.8798   89.8185   14.4441 N.ar    1  UNL1       -0.2388
     12 H          62.5784   89.3146   13.6539 H       1  UNL1        0.1923
     13 O          66.4998   93.3335    9.6097 O.3     1  UNL1       -0.4755
     14 C          67.5791   94.3618    9.7755 C.3     1  UNL1        0.2054
     15 C          67.4198   95.7218    9.1630 C.3     1  UNL1        0.0473
     16 C          66.0564   96.4989   11.2336 C.3     1  UNL1        0.0001
     17 C          66.7050   96.8045    9.9160 C.3     1  UNL1        0.0038
@<TRIPOS>BOND
     1    16    17    1
     2    17    15    1
     3    15    14    1
     4    14    13    1
     5    13     1    1
     6     1     2   ar
     7     2     3   ar
     8     3     4   ar
     9     4     7    1
    10     7     8   ar
    11     8     9   ar
    12     9    10   ar
    13    10    11   ar
    14     4     5   ar
    15     5     6   ar
    16     6     1   ar
    17    11     7   ar
    18    11    12    1
@<TRIPOS>MOLECULE
*****
 17 18 0 0 0
SMALL
GASTEIGER

@<TRIPOS>ATOM
      1 C          63.6767   83.7126   10.6900 C.ar    1  UNL1        0.1386
      2 C          63.7449   84.0689    9.2346 C.ar    1  UNL1        0.0370
      3 C          62.8866   85.1726    8.6915 C.ar    1  UNL1        0.0062
      4 C          61.9600   85.9202    9.6040 C.ar    1  UNL1        0.0373
      5 C          61.8918   85.5640   11.0594 C.ar    1  UNL1        0.0062
      6 C          62.7502   84.4602   11.6025 C.ar    1  UNL1        0.0370
      7 C          61.1017   87.0240    9.0609 C.ar    1  UNL1        0.1806
      8 N          60.0945   86.8957    7.9568 N.ar    1  UNL1       -0.1084
      9 N          59.4701   88.2423    7.7401 N.ar    1  UNL1       -0.0229
     10 N          60.0914   89.2028    8.7104 N.ar    1  UNL1       -0.0464
     11 N          61.0998   88.4498    9.5267 N.ar    1  UNL1       -0.2388
     12 H          61.6617   88.8255   10.2424 H       1  UNL1        0.1923
     13 O          64.5351   82.6089   11.2331 O.3     1  UNL1       -0.4755
     14 C          64.3466   82.1375   12.6445 C.3     1  UNL1        0.2054
     15 C          63.2265   81.1972   12.9780 C.3     1  UNL1        0.0473
     16 C          60.9000   80.8220   14.0720 C.3     1  UNL1        0.0001
     17 C          62.1764   81.6032   13.9693 C.3     1  UNL1        0.0038
@<TRIPOS>BOND
     1    16    17    1
     2    17    15    1
     3    15    14    1
     4    14    13    1
     5    13     1    1
     6     1     2   ar
     7     2     3   ar
     8     3     4   ar
     9     4     7    1
    10     7     8   ar
    11     8     9   ar
    12     9    10   ar
    13    10    11   ar
    14     4     5   ar
    15     5     6   ar
    16     6     1   ar
    17    11     7   ar
    18    11    12    1
@<TRIPOS>MOLECULE
*****
 17 18 0 0 0
SMALL
GASTEIGER

@<TRIPOS>ATOM
      1 C          64.9530   92.0982   12.3947 C.ar    1  UNL1        0.1386
      2 C          65.6554   91.8865   13.7030 C.ar    1  UNL1        0.0370
      3 C          65.3086   90.7036   14.5576 C.ar    1  UNL1        0.0062
      4 C          64.2593   89.7324   14.1040 C.ar    1  UNL1        0.0373
      5 C          63.5569   89.9442   12.7956 C.ar    1  UNL1        0.0062
      6 C          63.9038   91.1271   11.9410 C.ar    1  UNL1        0.0370
      7 C          63.9125   88.5495   14.9586 C.ar    1  UNL1        0.1806
      8 N          63.2154   88.5949   16.2860 N.ar    1  UNL1       -0.1084
      9 N          63.0739   87.1869   16.7837 N.ar    1  UNL1       -0.0229
     10 N          63.6836   86.2714   15.7639 N.ar    1  UNL1       -0.0464
     11 N          64.2018   87.1135   14.6359 N.ar    1  UNL1       -0.2388
     12 H          64.6528   86.7819   13.8260 H       1  UNL1        0.1923
     13 O          65.2998   93.2812   11.5400 O.3     1  UNL1       -0.4755
     14 C          66.6919   93.4363   11.0034 C.3     1  UNL1        0.2054
     15 C          67.5230   92.2221   10.7118 C.3     1  UNL1        0.0473
     16 C          68.3531   93.3190    8.5077 C.3     1  UNL1        0.0001
     17 C          68.3369   92.1549    9.4535 C.3     1  UNL1        0.0038
@<TRIPOS>BOND
     1    16    17    1
     2    17    15    1
     3    15    14    1
     4    14    13    1
     5    13     1    1
     6     1     2   ar
     7     2     3   ar
     8     3     4   ar
     9     4     7    1
    10     7     8   ar
    11     8     9   ar
    12     9    10   ar
    13    10    11   ar
    14     4     5   ar
    15     5     6   ar
    16     6     1   ar
    17    11     7   ar
    18    11    12    1
@<TRIPOS>MOLECULE
*****
 17 18 0 0 0
SMALL
GASTEIGER

@<TRIPOS>ATOM
      1 C          63.7935   90.0526   15.6824 C.ar    1  UNL1        0.1386
      2 C          64.3314   89.3273   14.4847 C.ar    1  UNL1        0.0370
      3 C          64.2819   87.8291   14.4304 C.ar    1  UNL1        0.0062
      4 C          63.6945   87.0562   15.5738 C.ar    1  UNL1        0.0373
      5 C          63.1566   87.7814   16.7716 C.ar    1  UNL1        0.0062
      6 C          63.2061   89.2796   16.8259 C.ar    1  UNL1        0.0370
      7 C          63.6450   85.5580   15.5195 C.ar    1  UNL1        0.1806
      8 N          62.4057   84.7143   15.5694 N.ar    1  UNL1       -0.1084
      9 N          62.8209   83.2753   15.4865 N.ar    1  UNL1       -0.0229
     10 N          64.3168   83.2295   15.3854 N.ar    1  UNL1       -0.0464
     11 N          64.8261   84.6403   15.4058 N.ar    1  UNL1       -0.2388
     12 H          65.7699   84.9156   15.3537 H       1  UNL1        0.1923
     13 O          63.8430   91.5508   15.7368 O.3     1  UNL1       -0.4755
     14 C          65.0569   92.2417   16.2835 C.3     1  UNL1        0.2054
     15 C          66.3670   92.1408   15.5601 C.3     1  UNL1        0.0473
     16 C          68.7884   93.0722   15.6996 C.3     1  UNL1        0.0001
     17 C          67.3134   93.3046   15.5565 C.3     1  UNL1        0.0038
@<TRIPOS>BOND
     1    16    17    1
     2    17    15    1
     3    15    14    1
     4    14    13    1
     5    13     1    1
     6     1     2   ar
     7     2     3   ar
     8     3     4   ar
     9     4     7    1
    10     7     8   ar
    11     8     9   ar
    12     9    10   ar
    13    10    11   ar
    14     4     5   ar
    15     5     6   ar
    16     6     1   ar
    17    11     7   ar
    18    11    12    1
