@<TRIPOS>MOLECULE
*****
 39 43 0 0 0
SMALL
GASTEIGER

@<TRIPOS>ATOM
      1 C          63.1944   87.5570   12.5562 C.3     1  UNL1        0.1522
      2 C          63.3077   86.0997   12.8931 C.3     1  UNL1        0.0313
      3 C          64.0610   85.9799   14.1848 C.3     1  UNL1        0.0264
      4 C          64.4132   87.3632   14.6460 C.3     1  UNL1        0.0942
      5 N          63.8776   88.3378   13.6394 N.am    1  UNL1       -0.2713
      6 C          64.0031   89.8311   13.7047 C.2     1  UNL1        0.2509
      7 O          63.4136   90.6815   12.6188 O.2     1  UNL1       -0.2727
      8 O          63.1385   89.2855   10.6172 O.2     1  UNL1       -0.2730
      9 C          62.5167   88.1324   11.3479 C.2     1  UNL1        0.2442
     10 N          61.2175   87.5547   10.8704 N.am    1  UNL1       -0.2826
     11 H          60.8094   86.7979   11.3500 H       1  UNL1        0.1549
     12 C          60.5398   88.1301    9.6621 C.ar    1  UNL1        0.0505
     13 C          60.0258   87.2203    8.5860 C.ar    1  UNL1        0.0178
     14 C          59.3482   87.7957    7.3779 C.ar    1  UNL1        0.0388
     15 C          59.1846   89.2809    7.2458 C.ar    1  UNL1        0.1454
     16 C          59.6986   90.1907    8.3219 C.ar    1  UNL1        0.0388
     17 C          60.3762   89.6153    9.5300 C.ar    1  UNL1        0.0178
     18 O          58.5070   89.8563    6.0375 O.3     1  UNL1       -0.4535
     19 C          59.2609   90.7726    5.1199 C.ar    1  UNL1        0.1454
     20 C          60.7485   90.6386    4.9824 C.ar    1  UNL1        0.0398
     21 C          61.5024   91.5550    4.0648 C.ar    1  UNL1        0.0328
     22 C          60.7686   92.6052    3.2847 C.ar    1  UNL1        0.1403
     23 F          61.5225   93.5215    2.3671 F       1  UNL1       -0.2042
     24 C          59.2810   92.7391    3.4222 C.ar    1  UNL1        0.0328
     25 C          58.5271   91.8228    4.3398 C.ar    1  UNL1        0.0398
     26 C          64.4022   84.7014   14.8911 C.3     1  UNL1        0.0281
     27 C          63.7935   83.4080   14.4367 C.ar    1  UNL1       -0.0220
     28 C          62.4299   83.0105   14.9193 C.ar    1  UNL1       -0.0020
     29 C          61.8212   81.7171   14.4649 C.ar    1  UNL1        0.0293
     30 C          62.5759   80.8212   13.5281 C.ar    1  UNL1        0.1401
     31 F          61.9671   79.5277   13.0737 F       1  UNL1       -0.2042
     32 C          63.9395   81.2187   13.0455 C.ar    1  UNL1        0.0293
     33 C          64.5482   82.5121   13.4999 C.ar    1  UNL1       -0.0020
     34 C          64.7183   90.4741   14.8559 C.3     1  UNL1        0.2138
     35 N          65.7001   91.5802   14.6056 N.ar    1  UNL1       -0.2206
     36 C          66.6149   91.6961   13.4225 C.ar    1  UNL1        0.1977
     37 N          67.4196   92.9521   13.5802 N.ar    1  UNL1       -0.2007
     38 C          67.0021   93.6124   14.8607 C.ar    1  UNL1        0.2210
     39 N          65.9394   92.7645   15.4944 N.ar    1  UNL1       -0.1447
@<TRIPOS>BOND
     1     8     9    2
     2     9    10   am
     3    10    12    1
     4    12    13   ar
     5    13    14   ar
     6    14    15   ar
     7    15    18    1
     8    18    19    1
     9    19    20   ar
    10    20    21   ar
    11    21    22   ar
    12    22    23    1
    13    22    24   ar
    14    24    25   ar
    15    15    16   ar
    16    16    17   ar
    17     1     9    1
    18     1     2    1
    19     2     3    1
    20     3    26    1
    21    26    27    1
    22    27    28   ar
    23    28    29   ar
    24    29    30   ar
    25    30    31    1
    26    30    32   ar
    27    32    33   ar
    28     3     4    1
    29     4     5    1
    30     5     6   am
    31     6     7    2
    32     6    34    1
    33    34    35    1
    34    35    36   ar
    35    36    37   ar
    36    37    38   ar
    37    38    39   ar
    38    17    12   ar
    39     5     1    1
    40    39    35   ar
    41    25    19   ar
    42    33    27   ar
    43    10    11    1
@<TRIPOS>MOLECULE
*****
 39 43 0 0 0
SMALL
GASTEIGER

@<TRIPOS>ATOM
      1 C          60.9476   88.7235   10.1038 C.3     1  UNL1        0.1522
      2 C          60.0811   89.4119    9.0912 C.3     1  UNL1        0.0313
      3 C          59.6564   88.3930    8.0755 C.3     1  UNL1        0.0264
      4 C          60.2605   87.0750    8.4604 C.3     1  UNL1        0.0942
      5 N          61.0584   87.2793    9.7140 N.am    1  UNL1       -0.2713
      6 C          61.8315   86.2246   10.4488 C.2     1  UNL1        0.2509
      7 O          62.5859   86.5796   11.6958 O.2     1  UNL1       -0.2727
      8 O          60.7380   89.9593   12.3796 O.2     1  UNL1       -0.2730
      9 C          61.5904   89.3666   11.2969 C.2     1  UNL1        0.2442
     10 N          63.0854   89.4170   11.4072 N.am    1  UNL1       -0.2826
     11 H          63.6448   89.0280   10.6966 H       1  UNL1        0.1549
     12 C          63.7282   90.0600   12.6003 C.ar    1  UNL1        0.0505
     13 C          64.4197   91.3834   12.4574 C.ar    1  UNL1        0.0178
     14 C          65.0625   92.0264   13.6504 C.ar    1  UNL1        0.0388
     15 C          65.0137   91.3461   14.9863 C.ar    1  UNL1        0.1454
     16 C          64.3222   90.0227   15.1293 C.ar    1  UNL1        0.0388
     17 C          63.6795   89.3797   13.9362 C.ar    1  UNL1        0.0178
     18 O          65.6565   91.9892   16.1794 O.3     1  UNL1       -0.4535
     19 C          66.9975   92.6477   16.0450 C.ar    1  UNL1        0.1454
     20 C          67.1037   94.0162   15.4402 C.ar    1  UNL1        0.0398
     21 C          68.4448   94.6747   15.3057 C.ar    1  UNL1        0.0328
     22 C          69.6795   93.9647   15.7760 C.ar    1  UNL1        0.1403
     23 F          71.0205   94.6232   15.6416 F       1  UNL1       -0.2042
     24 C          69.5733   92.5962   16.3808 C.ar    1  UNL1        0.0328
     25 C          68.2323   91.9376   16.5153 C.ar    1  UNL1        0.0398
     26 C          58.7813   88.6474    6.8840 C.3     1  UNL1        0.0281
     27 C          59.0331   89.8399    6.0095 C.ar    1  UNL1       -0.0220
     28 C          57.8908   90.7173    5.5908 C.ar    1  UNL1       -0.0020
     29 C          58.1425   91.9097    4.7163 C.ar    1  UNL1        0.0293
     30 C          59.5364   92.2247    4.2606 C.ar    1  UNL1        0.1401
     31 F          59.7882   93.4172    3.3861 F       1  UNL1       -0.2042
     32 C          60.6787   91.3472    4.6794 C.ar    1  UNL1        0.0293
     33 C          60.4270   90.1548    5.5538 C.ar    1  UNL1       -0.0020
     34 C          61.8503   84.8149    9.9366 C.3     1  UNL1        0.2138
     35 N          62.7967   83.8138   10.5300 N.ar    1  UNL1       -0.2206
     36 C          64.0897   83.3554    9.9233 C.ar    1  UNL1        0.1977
     37 N          64.7084   82.3536   10.8527 N.ar    1  UNL1       -0.2007
     38 C          63.7977   82.1929   12.0337 C.ar    1  UNL1        0.2210
     39 N          62.6163   83.0953   11.8343 N.ar    1  UNL1       -0.1447
@<TRIPOS>BOND
     1     8     9    2
     2     9    10   am
     3    10    12    1
     4    12    13   ar
     5    13    14   ar
     6    14    15   ar
     7    15    18    1
     8    18    19    1
     9    19    20   ar
    10    20    21   ar
    11    21    22   ar
    12    22    23    1
    13    22    24   ar
    14    24    25   ar
    15    15    16   ar
    16    16    17   ar
    17     1     9    1
    18     1     2    1
    19     2     3    1
    20     3    26    1
    21    26    27    1
    22    27    28   ar
    23    28    29   ar
    24    29    30   ar
    25    30    31    1
    26    30    32   ar
    27    32    33   ar
    28     3     4    1
    29     4     5    1
    30     5     6   am
    31     6     7    2
    32     6    34    1
    33    34    35    1
    34    35    36   ar
    35    36    37   ar
    36    37    38   ar
    37    38    39   ar
    38    17    12   ar
    39     5     1    1
    40    39    35   ar
    41    25    19   ar
    42    33    27   ar
    43    10    11    1
@<TRIPOS>MOLECULE
*****
 39 43 0 0 0
SMALL
GASTEIGER

@<TRIPOS>ATOM
      1 C          60.4689   87.6691    8.7539 C.3     1  UNL1        0.1522
      2 C          60.9404   86.2470    8.6823 C.3     1  UNL1        0.0313
      3 C          61.3814   85.8351   10.0557 C.3     1  UNL1        0.0264
      4 C          61.1822   87.0028   10.9760 C.3     1  UNL1        0.0942
      5 N          60.6183   88.1363   10.1714 N.am    1  UNL1       -0.2713
      6 C          60.2657   89.4978   10.6928 C.2     1  UNL1        0.2509
      7 O          59.7076   90.5352    9.7642 O.2     1  UNL1       -0.2727
      8 O          58.6592   88.0859    6.9369 O.2     1  UNL1       -0.2730
      9 C          59.9406   88.4815    7.6089 C.2     1  UNL1        0.2442
     10 N          60.6937   89.6894    7.1359 N.am    1  UNL1       -0.2826
     11 H          61.5347   89.9491    7.5770 H       1  UNL1        0.1549
     12 C          60.1654   90.5018    5.9909 C.ar    1  UNL1        0.0505
     13 C          61.1082   91.0429    4.9573 C.ar    1  UNL1        0.0178
     14 C          60.5799   91.8553    3.8123 C.ar    1  UNL1        0.0388
     15 C          59.1088   92.1265    3.7009 C.ar    1  UNL1        0.1454
     16 C          58.1660   91.5853    4.7345 C.ar    1  UNL1        0.0388
     17 C          58.6943   90.7730    5.8795 C.ar    1  UNL1        0.0178
     18 O          58.5805   92.9388    2.5559 O.3     1  UNL1       -0.4535
     19 C          59.5027   93.3715    1.4549 C.ar    1  UNL1        0.1454
     20 C          59.7813   92.4503    0.3044 C.ar    1  UNL1        0.0398
     21 C          60.7036   92.8830   -0.7966 C.ar    1  UNL1        0.0328
     22 C          61.3472   94.2370   -0.7472 C.ar    1  UNL1        0.1403
     23 F          62.2694   94.6697   -1.8482 F       1  UNL1       -0.2042
     24 C          61.0685   95.1583    0.4033 C.ar    1  UNL1        0.0328
     25 C          60.1463   94.7256    1.5043 C.ar    1  UNL1        0.0398
     26 C          61.9257   84.4916   10.4410 C.3     1  UNL1        0.0281
     27 C          62.5755   84.3015   11.7796 C.ar    1  UNL1       -0.0220
     28 C          63.1757   85.4751   12.4954 C.ar    1  UNL1       -0.0020
     29 C          63.8254   85.2850   13.8339 C.ar    1  UNL1        0.0293
     30 C          63.8750   83.9213   14.4566 C.ar    1  UNL1        0.1401
     31 F          64.5247   83.7311   15.7952 F       1  UNL1       -0.2042
     32 C          63.2748   82.7476   13.7407 C.ar    1  UNL1        0.0293
     33 C          62.6251   82.9377   12.4023 C.ar    1  UNL1       -0.0020
     34 C          60.4712   89.8220   12.1429 C.3     1  UNL1        0.2138
     35 N          61.8482   90.1219   12.6566 N.ar    1  UNL1       -0.2206
     36 C          62.9601   90.7602   11.8781 C.ar    1  UNL1        0.1977
     37 N          64.1542   90.8689   12.7794 N.ar    1  UNL1       -0.2007
     38 C          63.7802   90.2976   14.1150 C.ar    1  UNL1        0.2210
     39 N          62.3551   89.8360   14.0391 N.ar    1  UNL1       -0.1447
@<TRIPOS>BOND
     1     8     9    2
     2     9    10   am
     3    10    12    1
     4    12    13   ar
     5    13    14   ar
     6    14    15   ar
     7    15    18    1
     8    18    19    1
     9    19    20   ar
    10    20    21   ar
    11    21    22   ar
    12    22    23    1
    13    22    24   ar
    14    24    25   ar
    15    15    16   ar
    16    16    17   ar
    17     1     9    1
    18     1     2    1
    19     2     3    1
    20     3    26    1
    21    26    27    1
    22    27    28   ar
    23    28    29   ar
    24    29    30   ar
    25    30    31    1
    26    30    32   ar
    27    32    33   ar
    28     3     4    1
    29     4     5    1
    30     5     6   am
    31     6     7    2
    32     6    34    1
    33    34    35    1
    34    35    36   ar
    35    36    37   ar
    36    37    38   ar
    37    38    39   ar
    38    17    12   ar
    39     5     1    1
    40    39    35   ar
    41    25    19   ar
    42    33    27   ar
    43    10    11    1
@<TRIPOS>MOLECULE
*****
 39 43 0 0 0
SMALL
GASTEIGER

@<TRIPOS>ATOM
      1 C          63.6975   89.9126   13.3652 C.3     1  UNL1        0.1522
      2 C          64.1039   91.1542   14.1023 C.3     1  UNL1        0.0313
      3 C          64.7808   90.7374   15.3744 C.3     1  UNL1        0.0264
      4 C          64.7926   89.2382   15.4234 C.3     1  UNL1        0.0942
      5 N          64.1232   88.7285   14.1816 N.am    1  UNL1       -0.2713
      6 C          63.9157   87.2877   13.8198 C.2     1  UNL1        0.2509
      7 O          63.2259   86.9282   12.5373 O.2     1  UNL1       -0.2727
      8 O          63.5593   90.5892   10.8605 O.2     1  UNL1       -0.2730
      9 C          62.9897   89.8639   12.0435 C.2     1  UNL1        0.2442
     10 N          61.7124   89.0898   11.9049 N.am    1  UNL1       -0.2826
     11 H          61.3386   88.6137   12.6814 H       1  UNL1        0.1549
     12 C          61.0046   89.0410   10.5832 C.ar    1  UNL1        0.0505
     13 C          61.0009   87.7737    9.7808 C.ar    1  UNL1        0.0178
     14 C          60.2932   87.7250    8.4592 C.ar    1  UNL1        0.0388
     15 C          59.5891   88.9435    7.9401 C.ar    1  UNL1        0.1454
     16 C          59.5928   90.2108    8.7425 C.ar    1  UNL1        0.0388
     17 C          60.3005   90.2595   10.0641 C.ar    1  UNL1        0.0178
     18 O          58.8813   88.8947    6.6184 O.3     1  UNL1       -0.4535
     19 C          59.0096   90.0383    5.6563 C.ar    1  UNL1        0.1454
     20 C          60.3596   90.4306    5.1333 C.ar    1  UNL1        0.0398
     21 C          60.4878   91.5742    4.1711 C.ar    1  UNL1        0.0328
     22 C          59.2661   92.3255    3.7319 C.ar    1  UNL1        0.1403
     23 F          59.3944   93.4690    2.7698 F       1  UNL1       -0.2042
     24 C          57.9161   91.9331    4.2549 C.ar    1  UNL1        0.0328
     25 C          57.7878   90.7896    5.2170 C.ar    1  UNL1        0.0398
     26 C          65.3464   91.6581   16.4148 C.3     1  UNL1        0.0281
     27 C          66.6383   92.3759   16.1585 C.ar    1  UNL1       -0.0220
     28 C          67.8980   91.9160   16.8306 C.ar    1  UNL1       -0.0020
     29 C          69.1899   92.6339   16.5743 C.ar    1  UNL1        0.0293
     30 C          69.2220   93.8116   15.6460 C.ar    1  UNL1        0.1401
     31 F          70.5139   94.5295   15.3897 F       1  UNL1       -0.2042
     32 C          67.9623   94.2716   14.9739 C.ar    1  UNL1        0.0293
     33 C          66.6705   93.5537   15.2302 C.ar    1  UNL1       -0.0020
     34 C          64.3982   86.2062   14.7405 C.3     1  UNL1        0.2138
     35 N          63.9233   84.7956   14.5545 N.ar    1  UNL1       -0.2206
     36 C          62.8616   84.1090   15.3616 C.ar    1  UNL1        0.1977
     37 N          62.7089   82.7130   14.8345 N.ar    1  UNL1       -0.2007
     38 C          63.6762   82.5368   13.7017 C.ar    1  UNL1        0.2210
     39 N          64.4267   83.8239   13.5286 N.ar    1  UNL1       -0.1447
@<TRIPOS>BOND
     1     8     9    2
     2     9    10   am
     3    10    12    1
     4    12    13   ar
     5    13    14   ar
     6    14    15   ar
     7    15    18    1
     8    18    19    1
     9    19    20   ar
    10    20    21   ar
    11    21    22   ar
    12    22    23    1
    13    22    24   ar
    14    24    25   ar
    15    15    16   ar
    16    16    17   ar
    17     1     9    1
    18     1     2    1
    19     2     3    1
    20     3    26    1
    21    26    27    1
    22    27    28   ar
    23    28    29   ar
    24    29    30   ar
    25    30    31    1
    26    30    32   ar
    27    32    33   ar
    28     3     4    1
    29     4     5    1
    30     5     6   am
    31     6     7    2
    32     6    34    1
    33    34    35    1
    34    35    36   ar
    35    36    37   ar
    36    37    38   ar
    37    38    39   ar
    38    17    12   ar
    39     5     1    1
    40    39    35   ar
    41    25    19   ar
    42    33    27   ar
    43    10    11    1
