@<TRIPOS>MOLECULE
*****
 30 32 0 0 0
SMALL
GASTEIGER

@<TRIPOS>ATOM
      1 C          61.0492   86.6888   10.5000 C.ar    1  UNL1        0.1598
      2 C          60.7569   85.9497    9.2278 C.ar    1  UNL1        0.0397
      3 C          60.1541   86.6744    8.0610 C.ar    1  UNL1        0.0146
      4 C          59.8435   88.1381    8.1664 C.ar    1  UNL1        0.0591
      5 CL         59.2406   88.8628    6.9997 Cl      1  UNL1       -0.0822
      6 C          60.1357   88.8772    9.4385 C.ar    1  UNL1        0.0303
      7 C          60.7386   88.1525   10.6054 C.ar    1  UNL1        0.1000
      8 N          61.0309   88.8915   11.8775 N.pl3   1  UNL1       -0.2120
      9 H          60.4465   88.7732   12.6609 H       1  UNL1        0.1738
     10 S          62.2136   89.8108   11.9561 S.O2    1  UNL1        0.0737
     11 O          63.0040   88.7355   12.6409 O.2     1  UNL1       -0.1499
     12 O          61.4232   90.8862   11.2712 O.2     1  UNL1       -0.1499
     13 C          63.3963   90.7301   12.0346 C.ar    1  UNL1        0.1261
     14 C          63.8291   91.5006   10.8226 C.ar    1  UNL1        0.0211
     15 C          65.0118   92.4199   10.9012 C.ar    1  UNL1        0.0136
     16 C          65.7616   92.5688   12.1917 C.ar    1  UNL1        0.0683
     17 CL         66.9443   93.4881   12.2703 Cl      1  UNL1       -0.0814
     18 C          65.3288   91.7983   13.4038 C.ar    1  UNL1        0.0695
     19 CL         66.0786   91.9471   14.6944 Cl      1  UNL1       -0.0813
     20 C          64.1461   90.8790   13.3253 C.ar    1  UNL1        0.0324
     21 O          61.6521   85.9641   11.6668 O.3     1  UNL1       -0.4522
     22 C          63.2284   84.1221   12.6006 C.ar    1  UNL1        0.0485
     23 C          64.2145   83.0159   12.3682 C.ar    1  UNL1        0.0042
     24 C          64.6102   82.6455   10.9696 C.ar    1  UNL1        0.0002
     25 C          64.0200   83.3813    9.8034 C.ar    1  UNL1        0.0031
     26 C          63.0340   84.4875   10.0358 C.ar    1  UNL1        0.0375
     27 C          62.6382   84.8579   11.4344 C.ar    1  UNL1        0.1464
     28 O          62.0333   83.5339   14.8313 O.co2   1  UNL1       -0.5445
     29 C          62.8326   84.4924   13.9993 C.2     1  UNL1        0.0758
     30 O          63.2362   85.8213   14.5659 O.co2   1  UNL1       -0.5445
@<TRIPOS>UNITY_ATOM_ATTR
28 1
charge -1
@<TRIPOS>BOND
     1    28    29   ar
     2    29    30   ar
     3    29    22    1
     4    22    23   ar
     5    23    24   ar
     6    24    25   ar
     7    25    26   ar
     8    26    27   ar
     9    27    21    1
    10    21     1    1
    11     1     2   ar
    12     2     3   ar
    13     3     4   ar
    14     4     5    1
    15     4     6   ar
    16     6     7   ar
    17     7     8    1
    18     8    10    1
    19    10    11    2
    20    10    12    2
    21    10    13    1
    22    13    14   ar
    23    14    15   ar
    24    15    16   ar
    25    16    17    1
    26    16    18   ar
    27    18    19    1
    28    18    20   ar
    29    27    22   ar
    30     7     1   ar
    31    20    13   ar
    32     8     9    1
@<TRIPOS>MOLECULE
*****
 30 32 0 0 0
SMALL
GASTEIGER

@<TRIPOS>ATOM
      1 C          61.0460   86.7689   10.5371 C.ar    1  UNL1        0.1598
      2 C          60.8108   86.0715    9.2300 C.ar    1  UNL1        0.0397
      3 C          60.2605   86.8341    8.0615 C.ar    1  UNL1        0.0146
      4 C          59.9454   88.2941    8.2000 C.ar    1  UNL1        0.0591
      5 CL         59.3950   89.0567    7.0314 Cl      1  UNL1       -0.0822
      6 C          60.1805   88.9914    9.5070 C.ar    1  UNL1        0.0303
      7 C          60.7309   88.2288   10.6756 C.ar    1  UNL1        0.1000
      8 N          60.9661   88.9262   11.9826 N.pl3   1  UNL1       -0.2120
      9 H          60.3106   88.8390   12.7120 H       1  UNL1        0.1738
     10 S          62.1999   89.7565   12.1783 S.O2    1  UNL1        0.0737
     11 O          61.5257   90.9165   11.5077 O.2     1  UNL1       -0.1499
     12 O          62.8741   88.5964   12.8490 O.2     1  UNL1       -0.1499
     13 C          63.4338   90.5867   12.3741 C.ar    1  UNL1        0.1261
     14 C          64.1665   90.5444   13.6822 C.ar    1  UNL1        0.0211
     15 C          65.4004   91.3746   13.8780 C.ar    1  UNL1        0.0136
     16 C          65.9015   92.2472   12.7656 C.ar    1  UNL1        0.0683
     17 CL         67.1353   93.0774   12.9613 Cl      1  UNL1       -0.0814
     18 C          65.1687   92.2895   11.4573 C.ar    1  UNL1        0.0695
     19 CL         65.6699   93.1621   10.3449 Cl      1  UNL1       -0.0813
     20 C          63.9349   91.4593   11.2616 C.ar    1  UNL1        0.0324
     21 O          61.5964   86.0063   11.7057 O.3     1  UNL1       -0.4522
     22 C          63.2486   84.2405   12.6556 C.ar    1  UNL1        0.0485
     23 C          64.2506   83.1469   12.4326 C.ar    1  UNL1        0.0042
     24 C          64.6025   82.7252   11.0368 C.ar    1  UNL1        0.0002
     25 C          63.9523   83.3972    9.8639 C.ar    1  UNL1        0.0031
     26 C          62.9503   84.4908   10.0869 C.ar    1  UNL1        0.0375
     27 C          62.5984   84.9125   11.4827 C.ar    1  UNL1        0.1464
     28 O          61.9321   83.8470   14.8606 O.co2   1  UNL1       -0.5445
     29 C          62.8968   84.6622   14.0514 C.2     1  UNL1        0.0758
     30 O          63.5096   85.8992   14.6382 O.co2   1  UNL1       -0.5445
@<TRIPOS>UNITY_ATOM_ATTR
28 1
charge -1
@<TRIPOS>BOND
     1    28    29   ar
     2    29    30   ar
     3    29    22    1
     4    22    23   ar
     5    23    24   ar
     6    24    25   ar
     7    25    26   ar
     8    26    27   ar
     9    27    21    1
    10    21     1    1
    11     1     2   ar
    12     2     3   ar
    13     3     4   ar
    14     4     5    1
    15     4     6   ar
    16     6     7   ar
    17     7     8    1
    18     8    10    1
    19    10    11    2
    20    10    12    2
    21    10    13    1
    22    13    14   ar
    23    14    15   ar
    24    15    16   ar
    25    16    17    1
    26    16    18   ar
    27    18    19    1
    28    18    20   ar
    29    27    22   ar
    30     7     1   ar
    31    20    13   ar
    32     8     9    1
@<TRIPOS>MOLECULE
*****
 30 32 0 0 0
SMALL
GASTEIGER

@<TRIPOS>ATOM
      1 C          61.3221   88.5878   11.1145 C.ar    1  UNL1        0.1598
      2 C          60.3798   89.1840   10.1111 C.ar    1  UNL1        0.0397
      3 C          59.9355   88.3768    8.9275 C.ar    1  UNL1        0.0146
      4 C          60.4333   86.9734    8.7472 C.ar    1  UNL1        0.0591
      5 CL         59.9890   86.1662    7.5637 Cl      1  UNL1       -0.0822
      6 C          61.3755   86.3771    9.7506 C.ar    1  UNL1        0.0303
      7 C          61.8200   87.1844   10.9342 C.ar    1  UNL1        0.1000
      8 N          62.7622   86.5881   11.9375 N.pl3   1  UNL1       -0.2120
      9 H          63.4084   87.1628   12.4081 H       1  UNL1        0.1738
     10 S          62.7198   85.1163   12.2240 S.O2    1  UNL1        0.0737
     11 O          62.2271   85.4007   13.6120 O.2     1  UNL1       -0.1499
     12 O          63.2125   84.8320   10.8360 O.2     1  UNL1       -0.1499
     13 C          62.6774   83.6446   12.5105 C.ar    1  UNL1        0.1261
     14 C          62.4336   83.1593   13.9087 C.ar    1  UNL1        0.0211
     15 C          62.3912   81.6876   14.1951 C.ar    1  UNL1        0.0136
     16 C          62.5927   80.7010   13.0834 C.ar    1  UNL1        0.0683
     17 CL         62.5503   79.2292   13.3698 Cl      1  UNL1       -0.0814
     18 C          62.8365   81.1862   11.6851 C.ar    1  UNL1        0.0695
     19 CL         63.0380   80.1996   10.5733 Cl      1  UNL1       -0.0813
     20 C          62.8789   82.6580   11.3986 C.ar    1  UNL1        0.0324
     21 O          61.7665   89.3950   12.2981 O.3     1  UNL1       -0.4522
     22 C          63.9147   90.4296   13.3300 C.ar    1  UNL1        0.0485
     23 C          65.1040   91.3364   13.2155 C.ar    1  UNL1        0.0042
     24 C          65.3346   92.1154   11.9545 C.ar    1  UNL1        0.0002
     25 C          64.3758   91.9876   10.8081 C.ar    1  UNL1        0.0031
     26 C          63.1865   91.0808   10.9226 C.ar    1  UNL1        0.0375
     27 C          62.9559   90.3018   12.1836 C.ar    1  UNL1        0.1464
     28 O          63.2044   90.3505   15.8278 O.co2   1  UNL1       -0.5445
     29 C          63.6841   89.6506   14.5910 C.2     1  UNL1        0.0758
     30 O          63.9333   88.1717   14.6151 O.co2   1  UNL1       -0.5445
@<TRIPOS>UNITY_ATOM_ATTR
28 1
charge -1
@<TRIPOS>BOND
     1    28    29   ar
     2    29    30   ar
     3    29    22    1
     4    22    23   ar
     5    23    24   ar
     6    24    25   ar
     7    25    26   ar
     8    26    27   ar
     9    27    21    1
    10    21     1    1
    11     1     2   ar
    12     2     3   ar
    13     3     4   ar
    14     4     5    1
    15     4     6   ar
    16     6     7   ar
    17     7     8    1
    18     8    10    1
    19    10    11    2
    20    10    12    2
    21    10    13    1
    22    13    14   ar
    23    14    15   ar
    24    15    16   ar
    25    16    17    1
    26    16    18   ar
    27    18    19    1
    28    18    20   ar
    29    27    22   ar
    30     7     1   ar
    31    20    13   ar
    32     8     9    1
@<TRIPOS>MOLECULE
*****
 30 32 0 0 0
SMALL
GASTEIGER

@<TRIPOS>ATOM
      1 C          63.1939   90.2407   13.1706 C.ar    1  UNL1        0.1598
      2 C          63.6470   91.2993   12.2093 C.ar    1  UNL1        0.0397
      3 C          64.9803   91.9608   12.3960 C.ar    1  UNL1        0.0146
      4 C          65.8604   91.5637   13.5439 C.ar    1  UNL1        0.0591
      5 CL         67.1936   92.2252   13.7306 Cl      1  UNL1       -0.0822
      6 C          65.4073   90.5052   14.5052 C.ar    1  UNL1        0.0303
      7 C          64.0740   89.8436   14.3186 C.ar    1  UNL1        0.1000
      8 N          63.6209   88.7850   15.2798 N.pl3   1  UNL1       -0.2120
      9 H          63.2737   89.0400   16.1651 H       1  UNL1        0.1738
     10 S          63.6968   87.3379   14.8924 S.O2    1  UNL1        0.0737
     11 O          63.1865   86.9482   16.2480 O.2     1  UNL1       -0.1499
     12 O          64.2072   87.7277   13.5368 O.2     1  UNL1       -0.1499
     13 C          63.7727   85.8908   14.5049 C.ar    1  UNL1        0.1261
     14 C          64.1214   84.8563   15.5335 C.ar    1  UNL1        0.0211
     15 C          64.1973   83.4092   15.1461 C.ar    1  UNL1        0.0136
     16 C          63.9246   82.9966   13.7300 C.ar    1  UNL1        0.0683
     17 CL         64.0005   81.5495   13.3425 Cl      1  UNL1       -0.0814
     18 C          63.5759   84.0312   12.7012 C.ar    1  UNL1        0.0695
     19 CL         63.3032   83.6186   11.2851 Cl      1  UNL1       -0.0813
     20 C          63.5000   85.4783   13.0887 C.ar    1  UNL1        0.0324
     21 O          61.8606   89.5792   12.9840 O.3     1  UNL1       -0.4522
     22 C          60.1299   89.0301   11.1257 C.ar    1  UNL1        0.0485
     23 C          59.7916   88.3810    9.8165 C.ar    1  UNL1        0.0042
     24 C          60.8455   87.6316    9.0564 C.ar    1  UNL1        0.0002
     25 C          62.2377   87.5314    9.6054 C.ar    1  UNL1        0.0031
     26 C          62.5761   88.1806   10.9146 C.ar    1  UNL1        0.0375
     27 C          61.5222   88.9300   11.6747 C.ar    1  UNL1        0.1464
     28 O          58.8095   91.2223   11.5739 O.co2   1  UNL1       -0.5445
     29 C          59.0761   89.7795   11.8858 C.2     1  UNL1        0.0758
     30 O          58.2887   89.0861   12.9578 O.co2   1  UNL1       -0.5445
@<TRIPOS>UNITY_ATOM_ATTR
28 1
charge -1
@<TRIPOS>BOND
     1    28    29   ar
     2    29    30   ar
     3    29    22    1
     4    22    23   ar
     5    23    24   ar
     6    24    25   ar
     7    25    26   ar
     8    26    27   ar
     9    27    21    1
    10    21     1    1
    11     1     2   ar
    12     2     3   ar
    13     3     4   ar
    14     4     5    1
    15     4     6   ar
    16     6     7   ar
    17     7     8    1
    18     8    10    1
    19    10    11    2
    20    10    12    2
    21    10    13    1
    22    13    14   ar
    23    14    15   ar
    24    15    16   ar
    25    16    17    1
    26    16    18   ar
    27    18    19    1
    28    18    20   ar
    29    27    22   ar
    30     7     1   ar
    31    20    13   ar
    32     8     9    1
@<TRIPOS>MOLECULE
*****
 30 32 0 0 0
SMALL
GASTEIGER

@<TRIPOS>ATOM
      1 C          63.2912   90.8572   12.1666 C.ar    1  UNL1        0.1598
      2 C          63.5155   91.3180   10.7569 C.ar    1  UNL1        0.0397
      3 C          64.6114   92.2961   10.4530 C.ar    1  UNL1        0.0146
      4 C          65.4830   92.8134   11.5588 C.ar    1  UNL1        0.0591
      5 CL         66.5789   93.7914   11.2548 Cl      1  UNL1       -0.0822
      6 C          65.2587   92.3526   12.9685 C.ar    1  UNL1        0.0303
      7 C          64.1627   91.3745   13.2724 C.ar    1  UNL1        0.1000
      8 N          63.9384   90.9137   14.6821 N.pl3   1  UNL1       -0.2120
      9 H          63.8599   91.5732   15.4090 H       1  UNL1        0.1738
     10 S          63.8337   89.4483   14.9845 S.O2    1  UNL1        0.0737
     11 O          65.1993   89.2308   14.4034 O.2     1  UNL1       -0.1499
     12 O          62.4680   89.6658   15.5657 O.2     1  UNL1       -0.1499
     13 C          63.7289   87.9828   15.2869 C.ar    1  UNL1        0.1261
     14 C          63.2045   87.5269   16.6162 C.ar    1  UNL1        0.0211
     15 C          63.0998   86.0614   16.9186 C.ar    1  UNL1        0.0136
     16 C          63.5194   85.0519   15.8917 C.ar    1  UNL1        0.0683
     17 CL         63.4147   83.5864   16.1941 Cl      1  UNL1       -0.0814
     18 C          64.0439   85.5078   14.5623 C.ar    1  UNL1        0.0695
     19 CL         64.4635   84.4982   13.5354 Cl      1  UNL1       -0.0813
     20 C          64.1486   86.9732   14.2599 C.ar    1  UNL1        0.0324
     21 O          62.1953   89.8792   12.4706 O.3     1  UNL1       -0.4522
     22 C          60.2345   88.8287   11.1281 C.ar    1  UNL1        0.0485
     23 C          59.7438   87.8966   10.0603 C.ar    1  UNL1        0.0042
     24 C          60.7228   87.0829    9.2670 C.ar    1  UNL1        0.0002
     25 C          62.1927   87.2013    9.5416 C.ar    1  UNL1        0.0031
     26 C          62.6835   88.1334   10.6094 C.ar    1  UNL1        0.0375
     27 C          61.7044   88.9471   11.4027 C.ar    1  UNL1        0.1464
     28 O          58.5717   89.0405   13.1131 O.co2   1  UNL1       -0.5445
     29 C          59.2555   89.6424   11.9214 C.2     1  UNL1        0.0758
     30 O          58.9601   91.0580   11.5229 O.co2   1  UNL1       -0.5445
@<TRIPOS>UNITY_ATOM_ATTR
28 1
charge -1
@<TRIPOS>BOND
     1    28    29   ar
     2    29    30   ar
     3    29    22    1
     4    22    23   ar
     5    23    24   ar
     6    24    25   ar
     7    25    26   ar
     8    26    27   ar
     9    27    21    1
    10    21     1    1
    11     1     2   ar
    12     2     3   ar
    13     3     4   ar
    14     4     5    1
    15     4     6   ar
    16     6     7   ar
    17     7     8    1
    18     8    10    1
    19    10    11    2
    20    10    12    2
    21    10    13    1
    22    13    14   ar
    23    14    15   ar
    24    15    16   ar
    25    16    17    1
    26    16    18   ar
    27    18    19    1
    28    18    20   ar
    29    27    22   ar
    30     7     1   ar
    31    20    13   ar
    32     8     9    1
@<TRIPOS>MOLECULE
*****
 30 32 0 0 0
SMALL
GASTEIGER

@<TRIPOS>ATOM
      1 C          64.0050   89.7176   14.6330 C.ar    1  UNL1        0.1598
      2 C          65.3806   90.2585   14.8881 C.ar    1  UNL1        0.0397
      3 C          65.9512   91.3125   13.9862 C.ar    1  UNL1        0.0146
      4 C          65.1462   91.8256   12.8291 C.ar    1  UNL1        0.0591
      5 CL         65.7168   92.8796   11.9272 Cl      1  UNL1       -0.0822
      6 C          63.7706   91.2847   12.5741 C.ar    1  UNL1        0.0303
      7 C          63.1999   90.2307   13.4760 C.ar    1  UNL1        0.1000
      8 N          61.8243   89.6898   13.2209 N.pl3   1  UNL1       -0.2120
      9 H          61.0959   89.8777   13.8560 H       1  UNL1        0.1738
     10 S          61.5585   88.8625   11.9982 S.O2    1  UNL1        0.0737
     11 O          60.2617   89.5870   11.7900 O.2     1  UNL1       -0.1499
     12 O          62.8554   88.1381   12.2065 O.2     1  UNL1       -0.1499
     13 C          61.2927   88.0353   10.7755 C.ar    1  UNL1        0.1261
     14 C          59.9751   88.1457   10.0672 C.ar    1  UNL1        0.0211
     15 C          59.7093   87.3184    8.8445 C.ar    1  UNL1        0.0136
     16 C          60.7610   86.3808    8.3301 C.ar    1  UNL1        0.0683
     17 CL         60.4952   85.5536    7.1074 Cl      1  UNL1       -0.0814
     18 C          62.0787   86.2704    9.0384 C.ar    1  UNL1        0.0695
     19 CL         63.1305   85.3328    8.5240 Cl      1  UNL1       -0.0813
     20 C          62.3445   87.0977   10.2611 C.ar    1  UNL1        0.0324
     21 O          63.4344   88.6636   15.5350 O.3     1  UNL1       -0.4522
     22 C          63.3044   86.1827   16.2956 C.ar    1  UNL1        0.0485
     23 C          63.7469   84.7564   16.1559 C.ar    1  UNL1        0.0042
     24 C          64.7620   84.3844   15.1160 C.ar    1  UNL1        0.0002
     25 C          65.3344   85.4388   14.2158 C.ar    1  UNL1        0.0031
     26 C          64.8919   86.8652   14.3555 C.ar    1  UNL1        0.0375
     27 C          63.8769   87.2371   15.3953 C.ar    1  UNL1        0.1464
     28 O          62.7376   86.9898   18.6992 O.co2   1  UNL1       -0.5445
     29 C          62.2894   86.5547   17.3354 C.2     1  UNL1        0.0758
     30 O          60.8262   86.4917   17.0116 O.co2   1  UNL1       -0.5445
@<TRIPOS>UNITY_ATOM_ATTR
28 1
charge -1
@<TRIPOS>BOND
     1    28    29   ar
     2    29    30   ar
     3    29    22    1
     4    22    23   ar
     5    23    24   ar
     6    24    25   ar
     7    25    26   ar
     8    26    27   ar
     9    27    21    1
    10    21     1    1
    11     1     2   ar
    12     2     3   ar
    13     3     4   ar
    14     4     5    1
    15     4     6   ar
    16     6     7   ar
    17     7     8    1
    18     8    10    1
    19    10    11    2
    20    10    12    2
    21    10    13    1
    22    13    14   ar
    23    14    15   ar
    24    15    16   ar
    25    16    17    1
    26    16    18   ar
    27    18    19    1
    28    18    20   ar
    29    27    22   ar
    30     7     1   ar
    31    20    13   ar
    32     8     9    1
@<TRIPOS>MOLECULE
*****
 30 32 0 0 0
SMALL
GASTEIGER

@<TRIPOS>ATOM
      1 C          62.3372   89.5709   11.5259 C.ar    1  UNL1        0.1598
      2 C          61.5960   90.4147   10.5315 C.ar    1  UNL1        0.0397
      3 C          60.7849   89.7625    9.4513 C.ar    1  UNL1        0.0146
      4 C          60.7151   88.2665    9.3654 C.ar    1  UNL1        0.0591
      5 CL         59.9041   87.6143    8.2853 Cl      1  UNL1       -0.0822
      6 C          61.4563   87.4228   10.3598 C.ar    1  UNL1        0.0303
      7 C          62.2674   88.0750   11.4400 C.ar    1  UNL1        0.1000
      8 N          63.0086   87.2313   12.4343 N.pl3   1  UNL1       -0.2120
      9 H          63.5244   87.6592   13.1555 H       1  UNL1        0.1738
     10 S          62.9639   85.7356   12.3299 S.O2    1  UNL1        0.0737
     11 O          62.9860   85.6305   13.8261 O.2     1  UNL1       -0.1499
     12 O          62.9419   85.8407   10.8338 O.2     1  UNL1       -0.1499
     13 C          62.9193   84.2399   12.2255 C.ar    1  UNL1        0.1261
     14 C          63.4836   83.5553   11.0161 C.ar    1  UNL1        0.0211
     15 C          63.4389   82.0596   10.9116 C.ar    1  UNL1        0.0136
     16 C          62.8299   81.2485   12.0167 C.ar    1  UNL1        0.0683
     17 CL         62.7852   79.7528   11.9123 Cl      1  UNL1       -0.0814
     18 C          62.2655   81.9331   13.2262 C.ar    1  UNL1        0.0695
     19 CL         61.6565   81.1220   14.3312 Cl      1  UNL1       -0.0813
     20 C          62.3102   83.4288   13.3306 C.ar    1  UNL1        0.0324
     21 O          63.1482   90.2231   12.6061 O.3     1  UNL1       -0.4522
     22 C          65.1148   91.7717   13.3024 C.ar    1  UNL1        0.0485
     23 C          66.1427   92.8050   12.9481 C.ar    1  UNL1        0.0042
     24 C          66.2320   93.3232   11.5433 C.ar    1  UNL1        0.0002
     25 C          65.2935   92.8080   10.4927 C.ar    1  UNL1        0.0031
     26 C          64.2656   91.7747   10.8470 C.ar    1  UNL1        0.0375
     27 C          64.1762   91.2565   12.2518 C.ar    1  UNL1        0.1464
     28 O          64.8704   89.7824   14.9555 O.co2   1  UNL1       -0.5445
     29 C          65.0254   91.2535   14.7072 C.2     1  UNL1        0.0758
     30 O          65.0911   92.2064   15.8637 O.co2   1  UNL1       -0.5445
@<TRIPOS>UNITY_ATOM_ATTR
28 1
charge -1
@<TRIPOS>BOND
     1    28    29   ar
     2    29    30   ar
     3    29    22    1
     4    22    23   ar
     5    23    24   ar
     6    24    25   ar
     7    25    26   ar
     8    26    27   ar
     9    27    21    1
    10    21     1    1
    11     1     2   ar
    12     2     3   ar
    13     3     4   ar
    14     4     5    1
    15     4     6   ar
    16     6     7   ar
    17     7     8    1
    18     8    10    1
    19    10    11    2
    20    10    12    2
    21    10    13    1
    22    13    14   ar
    23    14    15   ar
    24    15    16   ar
    25    16    17    1
    26    16    18   ar
    27    18    19    1
    28    18    20   ar
    29    27    22   ar
    30     7     1   ar
    31    20    13   ar
    32     8     9    1
@<TRIPOS>MOLECULE
*****
 30 32 0 0 0
SMALL
GASTEIGER

@<TRIPOS>ATOM
      1 C          63.1280   87.6838   12.2732 C.ar    1  UNL1        0.1598
      2 C          63.1821   86.1851   12.2408 C.ar    1  UNL1        0.0397
      3 C          63.6847   85.4268   13.4334 C.ar    1  UNL1        0.0146
      4 C          64.1332   86.1671   14.6585 C.ar    1  UNL1        0.0591
      5 CL         64.6357   85.4088   15.8511 Cl      1  UNL1       -0.0822
      6 C          64.0791   87.6657   14.6909 C.ar    1  UNL1        0.0303
      7 C          63.5765   88.4242   13.4983 C.ar    1  UNL1        0.1000
      8 N          63.5224   89.9228   13.5308 N.pl3   1  UNL1       -0.2120
      9 H          62.7181   90.3933   13.2131 H       1  UNL1        0.1738
     10 S          64.6938   90.7045   14.0473 S.O2    1  UNL1        0.0737
     11 O          65.1664   90.9256   12.6409 O.2     1  UNL1       -0.1499
     12 O          64.2212   90.4835   15.4536 O.2     1  UNL1       -0.1499
     13 C          65.8652   91.4863   14.5638 C.ar    1  UNL1        0.1261
     14 C          65.7273   92.3079   15.8111 C.ar    1  UNL1        0.0211
     15 C          66.8986   93.0897   16.3276 C.ar    1  UNL1        0.0136
     16 C          68.2079   93.0498   15.5968 C.ar    1  UNL1        0.0683
     17 CL         69.3793   93.8316   16.1133 Cl      1  UNL1       -0.0814
     18 C          68.3459   92.2282   14.3494 C.ar    1  UNL1        0.0695
     19 CL         69.6551   92.1883   13.6185 Cl      1  UNL1       -0.0813
     20 C          67.1745   91.4464   13.8329 C.ar    1  UNL1        0.0324
     21 O          62.6255   88.4422   11.0806 O.3     1  UNL1       -0.4522
     22 C          60.2742   88.1497   10.0147 C.ar    1  UNL1        0.0485
     23 C          59.3720   87.4764    9.0235 C.ar    1  UNL1        0.0042
     24 C          59.9186   86.4222    8.1070 C.ar    1  UNL1        0.0002
     25 C          61.3675   86.0414    8.1817 C.ar    1  UNL1        0.0031
     26 C          62.2698   86.7147    9.1729 C.ar    1  UNL1        0.0375
     27 C          61.7231   87.7688   10.0894 C.ar    1  UNL1        0.1464
     28 O          59.2596   88.8322   12.3070 O.co2   1  UNL1       -0.5445
     29 C          59.7276   89.2038   10.9312 C.2     1  UNL1        0.0758
     30 O          59.6490   90.6296   10.4719 O.co2   1  UNL1       -0.5445
@<TRIPOS>UNITY_ATOM_ATTR
28 1
charge -1
@<TRIPOS>BOND
     1    28    29   ar
     2    29    30   ar
     3    29    22    1
     4    22    23   ar
     5    23    24   ar
     6    24    25   ar
     7    25    26   ar
     8    26    27   ar
     9    27    21    1
    10    21     1    1
    11     1     2   ar
    12     2     3   ar
    13     3     4   ar
    14     4     5    1
    15     4     6   ar
    16     6     7   ar
    17     7     8    1
    18     8    10    1
    19    10    11    2
    20    10    12    2
    21    10    13    1
    22    13    14   ar
    23    14    15   ar
    24    15    16   ar
    25    16    17    1
    26    16    18   ar
    27    18    19    1
    28    18    20   ar
    29    27    22   ar
    30     7     1   ar
    31    20    13   ar
    32     8     9    1
@<TRIPOS>MOLECULE
*****
 30 32 0 0 0
SMALL
GASTEIGER

@<TRIPOS>ATOM
      1 C          64.1953   89.7271   13.6613 C.ar    1  UNL1        0.1598
      2 C          65.5791   89.8880   14.2176 C.ar    1  UNL1        0.0397
      3 C          66.3177   91.1798   14.0291 C.ar    1  UNL1        0.0146
      4 C          65.6727   92.3108   13.2844 C.ar    1  UNL1        0.0591
      5 CL         66.4113   93.6027   13.0960 Cl      1  UNL1       -0.0822
      6 C          64.2890   92.1501   12.7282 C.ar    1  UNL1        0.0303
      7 C          63.5503   90.8582   12.9166 C.ar    1  UNL1        0.1000
      8 N          62.1666   90.6974   12.3603 N.pl3   1  UNL1       -0.2120
      9 H          61.4411   91.2881   12.6669 H       1  UNL1        0.1738
     10 S          61.8882   89.6366   11.3370 S.O2    1  UNL1        0.0737
     11 O          63.0319   90.1380   10.5061 O.2     1  UNL1       -0.1499
     12 O          60.7444   89.1352   12.1680 O.2     1  UNL1       -0.1499
     13 C          61.6098   88.5758   10.3137 C.ar    1  UNL1        0.1261
     14 C          60.4375   88.7155    9.3884 C.ar    1  UNL1        0.0211
     15 C          60.1591   87.6547    8.3651 C.ar    1  UNL1        0.0136
     16 C          61.0530   86.4541    8.2671 C.ar    1  UNL1        0.0683
     17 CL         60.7745   85.3933    7.2438 Cl      1  UNL1       -0.0814
     18 C          62.2253   86.3143    9.1925 C.ar    1  UNL1        0.0695
     19 CL         63.1191   85.1138    9.0945 Cl      1  UNL1       -0.0813
     20 C          62.5037   87.3751   10.2158 C.ar    1  UNL1        0.0324
     21 O          63.4567   88.4353   13.8498 O.3     1  UNL1       -0.4522
     22 C          63.5804   86.3579   15.4051 C.ar    1  UNL1        0.0485
     23 C          63.4694   85.7499   16.7718 C.ar    1  UNL1        0.0042
     24 C          63.1236   86.6115   17.9501 C.ar    1  UNL1        0.0002
     25 C          62.8888   88.0809   17.7615 C.ar    1  UNL1        0.0031
     26 C          62.9999   88.6888   16.3948 C.ar    1  UNL1        0.0375
     27 C          63.3457   87.8273   15.2166 C.ar    1  UNL1        0.1464
     28 O          65.2065   84.7149   14.2192 O.co2   1  UNL1       -0.5445
     29 C          63.9262   85.4963   14.2269 C.2     1  UNL1        0.0758
     30 O          62.9917   85.4163   13.0563 O.co2   1  UNL1       -0.5445
@<TRIPOS>UNITY_ATOM_ATTR
28 1
charge -1
@<TRIPOS>BOND
     1    28    29   ar
     2    29    30   ar
     3    29    22    1
     4    22    23   ar
     5    23    24   ar
     6    24    25   ar
     7    25    26   ar
     8    26    27   ar
     9    27    21    1
    10    21     1    1
    11     1     2   ar
    12     2     3   ar
    13     3     4   ar
    14     4     5    1
    15     4     6   ar
    16     6     7   ar
    17     7     8    1
    18     8    10    1
    19    10    11    2
    20    10    12    2
    21    10    13    1
    22    13    14   ar
    23    14    15   ar
    24    15    16   ar
    25    16    17    1
    26    16    18   ar
    27    18    19    1
    28    18    20   ar
    29    27    22   ar
    30     7     1   ar
    31    20    13   ar
    32     8     9    1
