@<TRIPOS>MOLECULE
*****
 37 40 0 0 0
SMALL
GASTEIGER

@<TRIPOS>ATOM
      1 C          61.3562   88.1470    9.3061 C.3     1  UNL1        0.1812
      2 O          62.6283   87.9034   10.0626 O.3     1  UNL1       -0.3784
      3 H          62.9198   86.9894    9.9191 H       1  UNL1        0.2106
      4 C          60.0841   88.3906    8.5495 C.3     1  UNL1        0.4197
      5 F          58.8120   88.6343    7.7930 F       1  UNL1       -0.1676
      6 F          59.7359   89.5033    9.4934 F       1  UNL1       -0.1676
      7 F          60.4324   87.2781    7.6057 F       1  UNL1       -0.1676
      8 C          61.3846   86.7340    8.8033 C.3     1  UNL1        0.0398
      9 C          62.9579   85.3623    8.4252 C.3     1  UNL1        0.0045
     10 C          62.0769   85.6682    9.6000 C.3     1  UNL1        0.0215
     11 C          61.1958   85.9741   10.7748 C.3     1  UNL1        0.0045
     12 C          62.7692   84.6024   10.3967 C.ar    1  UNL1       -0.0214
     13 C          63.6462   83.6003    9.7062 C.ar    1  UNL1       -0.0042
     14 C          64.3385   82.5345   10.5029 C.ar    1  UNL1        0.0010
     15 C          64.1537   82.4708   11.9902 C.ar    1  UNL1        0.0183
     16 C          63.2768   83.4728   12.6806 C.ar    1  UNL1        0.1054
     17 C          62.5845   84.5386   11.8839 C.ar    1  UNL1        0.0141
     18 S          63.0921   83.4091   14.1679 S.O2    1  UNL1        0.0104
     19 C          62.9074   83.3453   15.6551 C.3     1  UNL1        0.1816
     20 O          62.5206   84.7959   14.1564 O.2     1  UNL1       -0.1686
     21 O          63.6635   82.0223   14.1794 O.2     1  UNL1       -0.1686
     22 C          61.3279   89.5599    9.8088 C.3     1  UNL1        0.0811
     23 C          62.1880   89.9599   10.9708 C.2     1  UNL1        0.0614
     24 C          63.4216   90.8106   10.9029 C.2     1  UNL1        0.0163
     25 C          63.9616   90.9559   12.2948 C.2     1  UNL1        0.0264
     26 C          65.1565   91.6828   12.8371 C.2     1  UNL1        0.0903
     27 C          65.4514   91.6487   14.3074 C.2     1  UNL1        0.3192
     28 N          64.5515   90.8879   15.2355 N.2     1  UNL1       -0.0585
     29 C          63.3567   90.1611   14.6932 C.3     1  UNL1        0.3085
     30 C          63.0617   90.1951   13.2229 C.2     1  UNL1        0.1121
     31 N          61.9655   89.5795   12.4046 N.2     1  UNL1       -0.2495
     32 N          66.6463   92.3756   14.8497 N.pl3   1  UNL1       -0.1860
     33 C          67.6798   91.6324   15.6432 C.3     1  UNL1        0.2346
     34 C          68.8746   92.3592   16.1855 C.3     1  UNL1        0.1929
     35 O          69.0360   93.8292   15.9342 O.3     1  UNL1       -0.3449
     36 C          68.0025   94.5723   15.1407 C.3     1  UNL1        0.1929
     37 C          66.8076   93.8455   14.5985 C.3     1  UNL1        0.2346
@<TRIPOS>BOND
     1     9    10    1
     2    10    11    1
     3    10     8    1
     4     8     1    1
     5     1     2    1
     6     1    22    1
     7    22    23    1
     8    23    24    2
     9    24    25    1
    10    25    26    2
    11    26    27    1
    12    27    32    1
    13    32    33    1
    14    33    34    1
    15    34    35    1
    16    35    36    1
    17    36    37    1
    18    27    28    2
    19    28    29    1
    20    29    30    1
    21    30    31    2
    22     1     4    1
    23     4     5    1
    24     4     6    1
    25     4     7    1
    26    10    12    1
    27    12    13   ar
    28    13    14   ar
    29    14    15   ar
    30    15    16   ar
    31    16    18    1
    32    18    19    1
    33    18    20    2
    34    18    21    2
    35    16    17   ar
    36    31    23    1
    37    17    12   ar
    38    30    25    1
    39    37    32    1
    40     2     3    1
@<TRIPOS>MOLECULE
*****
 37 40 0 0 0
SMALL
GASTEIGER

@<TRIPOS>ATOM
      1 C          63.4841   87.2459   16.1783 C.3     1  UNL1        0.1812
      2 O          63.9030   87.3414   14.7412 O.3     1  UNL1       -0.3784
      3 H          64.0626   86.4510   14.3911 H       1  UNL1        0.2106
      4 C          63.0652   87.1505   17.6154 C.3     1  UNL1        0.4197
      5 F          62.6462   87.0550   19.0526 F       1  UNL1       -0.1676
      6 F          63.1243   88.6448   17.7320 F       1  UNL1       -0.1676
      7 F          63.0060   85.6562   17.4989 F       1  UNL1       -0.1676
      8 C          63.5976   85.7517   16.1122 C.3     1  UNL1        0.0398
      9 C          62.1475   84.8063   14.8860 C.3     1  UNL1        0.0045
     10 C          63.6223   85.0595   14.7816 C.3     1  UNL1        0.0215
     11 C          65.0971   85.3128   14.6773 C.3     1  UNL1        0.0045
     12 C          63.6470   84.3674   13.4511 C.ar    1  UNL1       -0.0214
     13 C          64.2210   82.9865   13.3346 C.ar    1  UNL1       -0.0042
     14 C          64.2457   82.2944   12.0040 C.ar    1  UNL1        0.0010
     15 C          63.6963   82.9832   10.7900 C.ar    1  UNL1        0.0183
     16 C          63.1223   84.3641   10.9066 C.ar    1  UNL1        0.1054
     17 C          63.0977   85.0562   12.2371 C.ar    1  UNL1        0.0141
     18 S          62.5730   85.0529    9.6925 S.O2    1  UNL1        0.0104
     19 C          62.0237   85.7417    8.4786 C.3     1  UNL1        0.1816
     20 O          61.6286   85.8301   10.5608 O.2     1  UNL1       -0.1686
     21 O          63.5174   84.2757    8.8242 O.2     1  UNL1       -0.1686
     22 C          63.3706   88.7401   16.2445 C.3     1  UNL1        0.0811
     23 C          63.6671   89.5693   15.0302 C.2     1  UNL1        0.0614
     24 C          64.8255   90.5078   14.8647 C.2     1  UNL1        0.0163
     25 C          64.7316   91.1241   13.5004 C.2     1  UNL1        0.0264
     26 C          65.5966   92.1210   12.7876 C.2     1  UNL1        0.0903
     27 C          65.2451   92.5602   11.3971 C.2     1  UNL1        0.3192
     28 N          64.0287   92.0027   10.7193 N.2     1  UNL1       -0.0585
     29 C          63.1637   91.0058   11.4321 C.3     1  UNL1        0.3085
     30 C          63.5151   90.5665   12.8226 C.2     1  UNL1        0.1121
     31 N          62.8572   89.6056   13.7681 N.2     1  UNL1       -0.2495
     32 N          66.1101   93.5571   10.6843 N.pl3   1  UNL1       -0.1860
     33 C          65.8705   95.0262   10.8698 C.3     1  UNL1        0.2346
     34 C          66.7355   96.0231   10.1570 C.3     1  UNL1        0.1929
     35 O          67.8401   95.5509    9.2588 O.3     1  UNL1       -0.3449
     36 C          68.0797   94.0818    9.0733 C.3     1  UNL1        0.1929
     37 C          67.2147   93.0849    9.7861 C.3     1  UNL1        0.2346
@<TRIPOS>BOND
     1     9    10    1
     2    10    11    1
     3    10     8    1
     4     8     1    1
     5     1     2    1
     6     1    22    1
     7    22    23    1
     8    23    24    2
     9    24    25    1
    10    25    26    2
    11    26    27    1
    12    27    32    1
    13    32    33    1
    14    33    34    1
    15    34    35    1
    16    35    36    1
    17    36    37    1
    18    27    28    2
    19    28    29    1
    20    29    30    1
    21    30    31    2
    22     1     4    1
    23     4     5    1
    24     4     6    1
    25     4     7    1
    26    10    12    1
    27    12    13   ar
    28    13    14   ar
    29    14    15   ar
    30    15    16   ar
    31    16    18    1
    32    18    19    1
    33    18    20    2
    34    18    21    2
    35    16    17   ar
    36    31    23    1
    37    17    12   ar
    38    30    25    1
    39    37    32    1
    40     2     3    1
@<TRIPOS>MOLECULE
*****
 37 40 0 0 0
SMALL
GASTEIGER

@<TRIPOS>ATOM
      1 C          61.2141   87.9340    9.1717 C.3     1  UNL1        0.1812
      2 O          62.6316   87.9844    9.6595 O.3     1  UNL1       -0.3784
      3 H          63.0635   87.1332    9.4869 H       1  UNL1        0.2106
      4 C          59.7966   87.8835    8.6840 C.3     1  UNL1        0.4197
      5 F          58.3789   87.8330    8.1961 F       1  UNL1       -0.1676
      6 F          59.3374   88.5450    9.9496 F       1  UNL1       -0.1676
      7 F          60.2556   87.2221    7.4184 F       1  UNL1       -0.1676
      8 C          61.4212   86.5199    8.7161 C.3     1  UNL1        0.0398
      9 C          63.0364   85.1710    8.4491 C.3     1  UNL1        0.0045
     10 C          62.1471   85.5468    9.5971 C.3     1  UNL1        0.0215
     11 C          61.2578   85.9226   10.7451 C.3     1  UNL1        0.0045
     12 C          62.8731   84.5737   10.4780 C.ar    1  UNL1       -0.0214
     13 C          63.7887   83.5518    9.8717 C.ar    1  UNL1       -0.0042
     14 C          64.5147   82.5787   10.7527 C.ar    1  UNL1        0.0010
     15 C          64.3251   82.6275   12.2399 C.ar    1  UNL1        0.0183
     16 C          63.4095   83.6494   12.8461 C.ar    1  UNL1        0.1054
     17 C          62.6835   84.6224   11.9651 C.ar    1  UNL1        0.0141
     18 S          63.2198   83.6981   14.3333 S.O2    1  UNL1        0.0104
     19 C          63.0302   83.7469   15.8204 C.3     1  UNL1        0.1816
     20 O          62.8716   85.1542   14.2412 O.2     1  UNL1       -0.1686
     21 O          63.5680   82.2421   14.4254 O.2     1  UNL1       -0.1686
     22 C          61.0070   89.3480    9.6273 C.3     1  UNL1        0.0811
     23 C          62.1333   90.1012   10.2707 C.2     1  UNL1        0.0614
     24 C          62.6830   89.8607   11.6456 C.2     1  UNL1        0.0163
     25 C          63.7972   90.8381   11.8768 C.2     1  UNL1        0.0264
     26 C          64.7032   91.0681   13.0500 C.2     1  UNL1        0.0903
     27 C          65.7481   92.1427   12.9912 C.2     1  UNL1        0.3192
     28 N          65.8870   92.9872   11.7594 N.2     1  UNL1       -0.0585
     29 C          64.9810   92.7572   10.5862 C.3     1  UNL1        0.3085
     30 C          63.9361   91.6826   10.6449 C.2     1  UNL1        0.1121
     31 N          62.9078   91.2272    9.6523 N.2     1  UNL1       -0.2495
     32 N          66.6541   92.3728   14.1644 N.pl3   1  UNL1       -0.1860
     33 C          66.0757   92.5268   15.5398 C.3     1  UNL1        0.2346
     34 C          66.9817   92.7568   16.7130 C.3     1  UNL1        0.1929
     35 O          68.4661   92.8329   16.5106 O.3     1  UNL1       -0.3449
     36 C          69.0444   92.6789   15.1352 C.3     1  UNL1        0.1929
     37 C          68.1384   92.4488   13.9621 C.3     1  UNL1        0.2346
@<TRIPOS>BOND
     1     9    10    1
     2    10    11    1
     3    10     8    1
     4     8     1    1
     5     1     2    1
     6     1    22    1
     7    22    23    1
     8    23    24    2
     9    24    25    1
    10    25    26    2
    11    26    27    1
    12    27    32    1
    13    32    33    1
    14    33    34    1
    15    34    35    1
    16    35    36    1
    17    36    37    1
    18    27    28    2
    19    28    29    1
    20    29    30    1
    21    30    31    2
    22     1     4    1
    23     4     5    1
    24     4     6    1
    25     4     7    1
    26    10    12    1
    27    12    13   ar
    28    13    14   ar
    29    14    15   ar
    30    15    16   ar
    31    16    18    1
    32    18    19    1
    33    18    20    2
    34    18    21    2
    35    16    17   ar
    36    31    23    1
    37    17    12   ar
    38    30    25    1
    39    37    32    1
    40     2     3    1
@<TRIPOS>MOLECULE
*****
 37 40 0 0 0
SMALL
GASTEIGER

@<TRIPOS>ATOM
      1 C          61.3736   87.5243    9.3216 C.3     1  UNL1        0.1812
      2 O          62.7681   87.6989    9.8459 O.3     1  UNL1       -0.3784
      3 H          63.1996   86.8327    9.9119 H       1  UNL1        0.2106
      4 C          59.9792   87.3497    8.7974 C.3     1  UNL1        0.4197
      5 F          58.5846   87.1751    8.2731 F       1  UNL1       -0.1676
      6 F          60.4923   86.4125    7.7445 F       1  UNL1       -0.1676
      7 F          59.4660   88.2868    9.8502 F       1  UNL1       -0.1676
      8 C          61.5883   86.0417    9.2445 C.3     1  UNL1        0.0398
      9 C          63.0558   84.5336    9.5130 C.3     1  UNL1        0.0045
     10 C          62.1455   85.3021   10.4245 C.3     1  UNL1        0.0215
     11 C          61.2353   86.0707   11.3360 C.3     1  UNL1        0.0045
     12 C          62.7028   84.5626   11.6046 C.ar    1  UNL1       -0.0214
     13 C          63.4994   85.2970   12.6420 C.ar    1  UNL1       -0.0042
     14 C          64.0566   84.5575   13.8221 C.ar    1  UNL1        0.0010
     15 C          63.8174   83.0835   13.9647 C.ar    1  UNL1        0.0183
     16 C          63.0209   82.3492   12.9272 C.ar    1  UNL1        0.1054
     17 C          62.4637   83.0887   11.7472 C.ar    1  UNL1        0.0141
     18 S          62.7817   80.8752   13.0698 S.O2    1  UNL1        0.0104
     19 C          62.5425   79.4013   13.2124 C.3     1  UNL1        0.1816
     20 O          62.8474   80.7203   11.5793 O.2     1  UNL1       -0.1686
     21 O          62.7161   81.0301   14.5603 O.2     1  UNL1       -0.1686
     22 C          61.1590   89.0068    9.3988 C.3     1  UNL1        0.0811
     23 C          62.1610   89.8741   10.1013 C.2     1  UNL1        0.0614
     24 C          62.5997   89.7357   11.5291 C.2     1  UNL1        0.0163
     25 C          63.6102   90.8082   11.8097 C.2     1  UNL1        0.0264
     26 C          64.3850   91.1586   13.0453 C.2     1  UNL1        0.0903
     27 C          65.3458   92.3104   13.0266 C.2     1  UNL1        0.3192
     28 N          65.5317   93.1117   11.7723 N.2     1  UNL1       -0.0585
     29 C          64.7569   92.7612   10.5366 C.3     1  UNL1        0.3085
     30 C          63.7961   91.6095   10.5553 C.2     1  UNL1        0.1121
     31 N          62.9005   91.0322    9.4995 N.2     1  UNL1       -0.2495
     32 N          66.1207   92.6609   14.2622 N.pl3   1  UNL1       -0.1860
     33 C          65.6277   92.2172   15.6077 C.3     1  UNL1        0.2346
     34 C          66.4026   92.5677   16.8433 C.3     1  UNL1        0.1929
     35 O          67.6704   93.3619   16.7334 O.3     1  UNL1       -0.3449
     36 C          68.1633   93.8055   15.3880 C.3     1  UNL1        0.1929
     37 C          67.3884   93.4551   14.1524 C.3     1  UNL1        0.2346
@<TRIPOS>BOND
     1     9    10    1
     2    10    11    1
     3    10     8    1
     4     8     1    1
     5     1     2    1
     6     1    22    1
     7    22    23    1
     8    23    24    2
     9    24    25    1
    10    25    26    2
    11    26    27    1
    12    27    32    1
    13    32    33    1
    14    33    34    1
    15    34    35    1
    16    35    36    1
    17    36    37    1
    18    27    28    2
    19    28    29    1
    20    29    30    1
    21    30    31    2
    22     1     4    1
    23     4     5    1
    24     4     6    1
    25     4     7    1
    26    10    12    1
    27    12    13   ar
    28    13    14   ar
    29    14    15   ar
    30    15    16   ar
    31    16    18    1
    32    18    19    1
    33    18    20    2
    34    18    21    2
    35    16    17   ar
    36    31    23    1
    37    17    12   ar
    38    30    25    1
    39    37    32    1
    40     2     3    1
@<TRIPOS>MOLECULE
*****
 37 40 0 0 0
SMALL
GASTEIGER

@<TRIPOS>ATOM
      1 C          64.7909   91.3805   14.6009 C.3     1  UNL1        0.1812
      2 O          63.4088   91.2276   14.0383 O.3     1  UNL1       -0.3784
      3 H          63.1858   92.0108   13.5113 H       1  UNL1        0.2106
      4 C          66.1729   91.5334   15.1636 C.3     1  UNL1        0.4197
      5 F          67.5550   91.6862   15.7262 F       1  UNL1       -0.1676
      6 F          65.6624   92.5497   16.1416 F       1  UNL1       -0.1676
      7 F          66.6834   90.5171   14.1856 F       1  UNL1       -0.1676
      8 C          64.9138   92.7192   13.9354 C.3     1  UNL1        0.0398
      9 C          64.8442   91.9775   11.9492 C.3     1  UNL1        0.0045
     10 C          65.7717   92.8739   12.7148 C.3     1  UNL1        0.0215
     11 C          66.6992   93.7704   13.4803 C.3     1  UNL1        0.0045
     12 C          66.6297   93.0287   11.4941 C.ar    1  UNL1       -0.0214
     13 C          67.6169   91.9594   11.1308 C.ar    1  UNL1       -0.0042
     14 C          68.4749   92.1141    9.9101 C.ar    1  UNL1        0.0010
     15 C          68.3455   93.3382    9.0528 C.ar    1  UNL1        0.0183
     16 C          67.3583   94.4074    9.4161 C.ar    1  UNL1        0.1054
     17 C          66.5004   94.2527   10.6368 C.ar    1  UNL1        0.0141
     18 S          67.2290   95.6315    8.5588 S.O2    1  UNL1        0.0104
     19 C          67.0996   96.8556    7.7015 C.3     1  UNL1        0.1816
     20 O          67.1268   94.7658    7.3381 O.2     1  UNL1       -0.1686
     21 O          67.3312   96.4972    9.7794 O.2     1  UNL1       -0.1686
     22 C          64.6680   90.0419   15.2665 C.3     1  UNL1        0.0811
     23 C          64.2258   88.8479   14.4735 C.2     1  UNL1        0.0614
     24 C          64.3912   87.4121   14.8753 C.2     1  UNL1        0.0163
     25 C          63.8081   86.5569   13.7896 C.2     1  UNL1        0.0264
     26 C          63.6880   85.0693   13.6393 C.2     1  UNL1        0.0903
     27 C          63.0421   84.4888   12.4162 C.2     1  UNL1        0.3192
     28 N          62.5164   85.3959   11.3435 N.2     1  UNL1       -0.0585
     29 C          62.6365   86.8835   11.4938 C.3     1  UNL1        0.3085
     30 C          63.2823   87.4640   12.7169 C.2     1  UNL1        0.1121
     31 N          63.5405   88.8800   13.1396 N.2     1  UNL1       -0.2495
     32 N          62.9220   83.0012   12.2658 N.pl3   1  UNL1       -0.1860
     33 C          62.5564   82.1548   13.4491 C.3     1  UNL1        0.2346
     34 C          62.4363   80.6672   13.2988 C.3     1  UNL1        0.1929
     35 O          62.6818   80.0260   11.9651 O.3     1  UNL1       -0.3449
     36 C          63.0474   80.8723   10.7819 C.3     1  UNL1        0.1929
     37 C          63.1675   82.3599   10.9322 C.3     1  UNL1        0.2346
@<TRIPOS>BOND
     1     9    10    1
     2    10    11    1
     3    10     8    1
     4     8     1    1
     5     1     2    1
     6     1    22    1
     7    22    23    1
     8    23    24    2
     9    24    25    1
    10    25    26    2
    11    26    27    1
    12    27    32    1
    13    32    33    1
    14    33    34    1
    15    34    35    1
    16    35    36    1
    17    36    37    1
    18    27    28    2
    19    28    29    1
    20    29    30    1
    21    30    31    2
    22     1     4    1
    23     4     5    1
    24     4     6    1
    25     4     7    1
    26    10    12    1
    27    12    13   ar
    28    13    14   ar
    29    14    15   ar
    30    15    16   ar
    31    16    18    1
    32    18    19    1
    33    18    20    2
    34    18    21    2
    35    16    17   ar
    36    31    23    1
    37    17    12   ar
    38    30    25    1
    39    37    32    1
    40     2     3    1
@<TRIPOS>MOLECULE
*****
 37 40 0 0 0
SMALL
GASTEIGER

@<TRIPOS>ATOM
      1 C          61.1851   89.0644   10.3859 C.3     1  UNL1        0.1812
      2 O          62.3743   88.3698    9.7917 O.3     1  UNL1       -0.3784
      3 H          62.3167   87.4185    9.9723 H       1  UNL1        0.2106
      4 C          59.9959   89.7591   10.9801 C.3     1  UNL1        0.4197
      5 F          58.8065   90.4538   11.5743 F       1  UNL1       -0.1676
      6 F          60.4442   89.3527   12.3527 F       1  UNL1       -0.1676
      7 F          59.5475   90.1655    9.6076 F       1  UNL1       -0.1676
      8 C          60.6700   87.7497   10.8922 C.3     1  UNL1        0.0398
      9 C          60.7745   86.1886    9.4597 C.3     1  UNL1        0.0045
     10 C          61.4979   86.5088   10.7341 C.3     1  UNL1        0.0215
     11 C          62.2212   86.8291   12.0086 C.3     1  UNL1        0.0045
     12 C          62.3257   85.2680   10.5761 C.ar    1  UNL1       -0.0214
     13 C          63.0656   85.0181    9.2953 C.ar    1  UNL1       -0.0042
     14 C          63.8934   83.7772    9.1373 C.ar    1  UNL1        0.0010
     15 C          63.9813   82.7863   10.2600 C.ar    1  UNL1        0.0183
     16 C          63.2414   83.0362   11.5406 C.ar    1  UNL1        0.1054
     17 C          62.4136   84.2770   11.6986 C.ar    1  UNL1        0.0141
     18 S          63.3293   82.0452   12.6632 S.O2    1  UNL1        0.0104
     19 C          63.4172   81.0542   13.7858 C.3     1  UNL1        0.1816
     20 O          63.7464   83.1414   13.5983 O.2     1  UNL1       -0.1686
     21 O          62.9123   80.9490   11.7282 O.2     1  UNL1       -0.1686
     22 C          61.7001   90.3791    9.8797 C.3     1  UNL1        0.0811
     23 C          62.8787   91.0283   10.5425 C.2     1  UNL1        0.0614
     24 C          63.3965   90.7224   11.9167 C.2     1  UNL1        0.0163
     25 C          64.5843   91.6023   12.1711 C.2     1  UNL1        0.0264
     26 C          65.4969   91.7396   13.3536 C.2     1  UNL1        0.0903
     27 C          66.6258   92.7268   13.3192 C.2     1  UNL1        0.3192
     28 N          66.8422   93.5765   12.1022 N.2     1  UNL1       -0.0585
     29 C          65.9296   93.4392   10.9197 C.3     1  UNL1        0.3085
     30 C          64.8007   92.4522   10.9541 C.2     1  UNL1        0.1121
     31 N          63.7466   92.0974    9.9476 N.2     1  UNL1       -0.2495
     32 N          67.5384   92.8641   14.5017 N.pl3   1  UNL1       -0.1860
     33 C          67.9610   94.2254   14.9689 C.3     1  UNL1        0.2346
     34 C          68.8735   94.3627   16.1514 C.3     1  UNL1        0.1929
     35 O          69.3635   93.1386   16.8668 O.3     1  UNL1       -0.3449
     36 C          68.9409   91.7774   16.3996 C.3     1  UNL1        0.1929
     37 C          68.0284   91.6401   15.2171 C.3     1  UNL1        0.2346
@<TRIPOS>BOND
     1     9    10    1
     2    10    11    1
     3    10     8    1
     4     8     1    1
     5     1     2    1
     6     1    22    1
     7    22    23    1
     8    23    24    2
     9    24    25    1
    10    25    26    2
    11    26    27    1
    12    27    32    1
    13    32    33    1
    14    33    34    1
    15    34    35    1
    16    35    36    1
    17    36    37    1
    18    27    28    2
    19    28    29    1
    20    29    30    1
    21    30    31    2
    22     1     4    1
    23     4     5    1
    24     4     6    1
    25     4     7    1
    26    10    12    1
    27    12    13   ar
    28    13    14   ar
    29    14    15   ar
    30    15    16   ar
    31    16    18    1
    32    18    19    1
    33    18    20    2
    34    18    21    2
    35    16    17   ar
    36    31    23    1
    37    17    12   ar
    38    30    25    1
    39    37    32    1
    40     2     3    1
@<TRIPOS>MOLECULE
*****
 37 40 0 0 0
SMALL
GASTEIGER

@<TRIPOS>ATOM
      1 C          61.2504   87.2794    9.3916 C.3     1  UNL1        0.1812
      2 O          62.4920   87.4419   10.2174 O.3     1  UNL1       -0.3784
      3 H          63.0319   86.6387   10.1510 H       1  UNL1        0.2106
      4 C          60.0088   87.1170    8.5658 C.3     1  UNL1        0.4197
      5 F          58.7671   86.9546    7.7400 F       1  UNL1       -0.1676
      6 F          60.7627   86.2480    7.6032 F       1  UNL1       -0.1676
      7 F          59.2549   87.9860    9.5284 F       1  UNL1       -0.1676
      8 C          61.6969   85.9047    8.9906 C.3     1  UNL1        0.0398
      9 C          63.3259   84.5461    8.9628 C.3     1  UNL1        0.0045
     10 C          62.3423   85.0016    9.9996 C.3     1  UNL1        0.0215
     11 C          61.3587   85.4572   11.0364 C.3     1  UNL1        0.0045
     12 C          62.9876   84.0986   11.0086 C.ar    1  UNL1       -0.0214
     13 C          63.8377   82.9501   10.5519 C.ar    1  UNL1       -0.0042
     14 C          64.4831   82.0471   11.5609 C.ar    1  UNL1        0.0010
     15 C          64.2783   82.2925   13.0265 C.ar    1  UNL1        0.0183
     16 C          63.4283   83.4409   13.4831 C.ar    1  UNL1        0.1054
     17 C          62.7829   84.3440   12.4741 C.ar    1  UNL1        0.0141
     18 S          63.2235   83.6863   14.9487 S.O2    1  UNL1        0.0104
     19 C          63.0187   83.9318   16.4142 C.3     1  UNL1        0.1816
     20 O          64.4252   82.8436   15.2577 O.2     1  UNL1       -0.1686
     21 O          62.0218   84.5291   14.6396 O.2     1  UNL1       -0.1686
     22 C          60.8039   88.6541    9.7926 C.3     1  UNL1        0.0811
     23 C          61.8122   89.6676   10.2464 C.2     1  UNL1        0.0614
     24 C          62.4210   90.7460    9.3998 C.2     1  UNL1        0.0163
     25 C          63.3739   91.5256   10.2567 C.2     1  UNL1        0.0264
     26 C          64.2571   92.7016    9.9616 C.2     1  UNL1        0.0903
     27 C          65.1205   93.2810   11.0427 C.2     1  UNL1        0.3192
     28 N          65.1008   92.6844   12.4188 N.2     1  UNL1       -0.0585
     29 C          64.2176   91.5084   12.7139 C.3     1  UNL1        0.3085
     30 C          63.3542   90.9290   11.6329 C.2     1  UNL1        0.1121
     31 N          62.3890   89.7807   11.6265 N.2     1  UNL1       -0.2495
     32 N          66.0037   94.4570   10.7477 N.pl3   1  UNL1       -0.1860
     33 C          66.9493   94.4116    9.5841 C.3     1  UNL1        0.2346
     34 C          67.8324   95.5876    9.2890 C.3     1  UNL1        0.1929
     35 O          67.7700   96.8090   10.1576 O.3     1  UNL1       -0.3449
     36 C          66.8244   96.8544   11.3211 C.3     1  UNL1        0.1929
     37 C          65.9413   95.6784   11.6162 C.3     1  UNL1        0.2346
@<TRIPOS>BOND
     1     9    10    1
     2    10    11    1
     3    10     8    1
     4     8     1    1
     5     1     2    1
     6     1    22    1
     7    22    23    1
     8    23    24    2
     9    24    25    1
    10    25    26    2
    11    26    27    1
    12    27    32    1
    13    32    33    1
    14    33    34    1
    15    34    35    1
    16    35    36    1
    17    36    37    1
    18    27    28    2
    19    28    29    1
    20    29    30    1
    21    30    31    2
    22     1     4    1
    23     4     5    1
    24     4     6    1
    25     4     7    1
    26    10    12    1
    27    12    13   ar
    28    13    14   ar
    29    14    15   ar
    30    15    16   ar
    31    16    18    1
    32    18    19    1
    33    18    20    2
    34    18    21    2
    35    16    17   ar
    36    31    23    1
    37    17    12   ar
    38    30    25    1
    39    37    32    1
    40     2     3    1
