@<TRIPOS>MOLECULE
*****
 31 34 0 0 0
SMALL
GASTEIGER

@<TRIPOS>ATOM
      1 C          64.5072   90.4573   14.4836 C.2     1  UNL1        0.2567
      2 O          63.1580   90.7458   15.0720 O.2     1  UNL1       -0.2696
      3 N          65.0563   89.0618   14.5153 N.am    1  UNL1       -0.2656
      4 H          65.9419   88.8724   14.1290 H       1  UNL1        0.1566
      5 C          64.2562   87.9548   15.1353 C.ar    1  UNL1        0.1345
      6 C          63.4359   88.2191   16.3630 C.ar    1  UNL1        0.0345
      7 C          62.6358   87.1122   16.9830 C.ar    1  UNL1        0.0045
      8 C          62.6561   85.7410   16.3755 C.ar    1  UNL1        0.0224
      9 C          63.4764   85.4766   15.1478 C.ar    1  UNL1        0.1185
     10 N          64.2765   86.5836   14.5277 N.ar    1  UNL1       -0.2274
     11 C          63.4966   84.1053   14.5401 C.ar    1  UNL1        0.1842
     12 N          63.8249   82.8285   15.2558 N.ar    1  UNL1       -0.1271
     13 N          63.7233   81.7043   14.2681 N.ar    1  UNL1       -0.1255
     14 C          63.3323   82.2861   12.9421 C.ar    1  UNL1        0.2026
     15 N          63.1922   83.7700   13.1101 N.ar    1  UNL1       -0.2935
     16 C          62.8140   84.7472   12.0367 C.3     1  UNL1        0.0886
     17 C          61.9425   85.9229   12.3659 C.3     1  UNL1        0.0246
     18 C          63.3073   84.5487   10.6341 C.3     1  UNL1        0.0246
     19 C          66.3237   92.4167   14.5639 C.ar    1  UNL1        0.2482
     20 N          66.8760   93.3924   13.5674 N.ar    1  UNL1       -0.1258
     21 N          66.2011   93.1429   12.2513 N.ar    1  UNL1       -0.2061
     22 C          65.2316   92.0131   12.4343 C.ar    1  UNL1        0.1115
     23 C          65.3073   91.5642   13.8635 C.ar    1  UNL1        0.1273
     24 C          66.4517   93.8919   10.9760 C.ar    1  UNL1        0.1832
     25 C          65.6650   95.1311   10.6670 C.ar    1  UNL1        0.1376
     26 N          65.9157   95.8800    9.3917 N.ar    1  UNL1       -0.2375
     27 C          66.9530   95.3897    8.4255 C.ar    1  UNL1        0.1196
     28 C          67.7396   94.1505    8.7345 C.ar    1  UNL1        0.1212
     29 N          67.4890   93.4016   10.0097 N.ar    1  UNL1       -0.2221
     30 C          68.1686   92.3141   16.3903 C.3     1  UNL1        0.2543
     31 O          66.7183   92.3119   16.0072 O.3     1  UNL1       -0.4551
@<TRIPOS>BOND
     1    30    31    1
     2    31    19    1
     3    19    20   ar
     4    20    21   ar
     5    21    24    1
     6    24    25   ar
     7    25    26   ar
     8    26    27   ar
     9    27    28   ar
    10    28    29   ar
    11    21    22   ar
    12    22    23   ar
    13    23     1    1
    14     1     2    2
    15     1     3   am
    16     3     5    1
    17     5     6   ar
    18     6     7   ar
    19     7     8   ar
    20     8     9   ar
    21     9    11    1
    22    11    12   ar
    23    12    13   ar
    24    13    14   ar
    25    14    15   ar
    26    15    16    1
    27    16    17    1
    28    16    18    1
    29     9    10   ar
    30    23    19   ar
    31    10     5   ar
    32    29    24   ar
    33    15    11   ar
    34     3     4    1
@<TRIPOS>MOLECULE
*****
 31 34 0 0 0
SMALL
GASTEIGER

@<TRIPOS>ATOM
      1 C          63.3404   89.5256   13.1110 C.2     1  UNL1        0.2567
      2 O          62.3112   89.7876   14.1704 O.2     1  UNL1       -0.2696
      3 N          64.0651   88.2127   13.0779 N.am    1  UNL1       -0.2656
      4 H          64.7406   88.0407   12.3826 H       1  UNL1        0.1566
      5 C          63.7607   87.1618   14.1041 C.ar    1  UNL1        0.1345
      6 C          63.7900   87.5078   15.5633 C.ar    1  UNL1        0.0345
      7 C          63.4856   86.4570   16.5894 C.ar    1  UNL1        0.0045
      8 C          63.1518   85.0602   16.1564 C.ar    1  UNL1        0.0224
      9 C          63.1225   84.7142   14.6971 C.ar    1  UNL1        0.1185
     10 N          63.4269   85.7651   13.6709 N.ar    1  UNL1       -0.2274
     11 C          62.7888   83.3174   14.2640 C.ar    1  UNL1        0.1842
     12 N          62.3619   82.1941   15.1618 N.ar    1  UNL1       -0.1271
     13 N          62.1326   80.9812   14.3097 N.ar    1  UNL1       -0.1255
     14 C          62.4178   81.3547   12.8853 C.ar    1  UNL1        0.2026
     15 N          62.8233   82.7986   12.8570 N.ar    1  UNL1       -0.2935
     16 C          63.1977   83.5856   11.6360 C.3     1  UNL1        0.0886
     17 C          62.2900   84.6696   11.1350 C.3     1  UNL1        0.0246
     18 C          64.4798   83.2885   10.9162 C.3     1  UNL1        0.0246
     19 C          62.8531   90.8489   10.8402 C.ar    1  UNL1        0.2482
     20 N          63.5134   91.9801   10.1093 N.ar    1  UNL1       -0.1258
     21 N          64.7131   92.4069   10.9021 N.ar    1  UNL1       -0.2061
     22 C          64.7943   91.5393   12.1231 C.ar    1  UNL1        0.1115
     23 C          63.6448   90.5764   12.0848 C.ar    1  UNL1        0.1273
     24 C          65.6646   93.5079   10.5380 C.ar    1  UNL1        0.1832
     25 C          67.0287   93.1761   10.0098 C.ar    1  UNL1        0.1376
     26 N          67.9801   94.2771    9.6457 N.ar    1  UNL1       -0.2375
     27 C          67.5673   95.7099    9.8096 C.ar    1  UNL1        0.1196
     28 C          66.2032   96.0416   10.3378 C.ar    1  UNL1        0.1212
     29 N          65.2518   94.9406   10.7020 N.ar    1  UNL1       -0.2221
     30 C          60.2946   90.4398   11.0317 C.3     1  UNL1        0.2543
     31 O          61.6181   90.1183   10.4032 O.3     1  UNL1       -0.4551
@<TRIPOS>BOND
     1    30    31    1
     2    31    19    1
     3    19    20   ar
     4    20    21   ar
     5    21    24    1
     6    24    25   ar
     7    25    26   ar
     8    26    27   ar
     9    27    28   ar
    10    28    29   ar
    11    21    22   ar
    12    22    23   ar
    13    23     1    1
    14     1     2    2
    15     1     3   am
    16     3     5    1
    17     5     6   ar
    18     6     7   ar
    19     7     8   ar
    20     8     9   ar
    21     9    11    1
    22    11    12   ar
    23    12    13   ar
    24    13    14   ar
    25    14    15   ar
    26    15    16    1
    27    16    17    1
    28    16    18    1
    29     9    10   ar
    30    23    19   ar
    31    10     5   ar
    32    29    24   ar
    33    15    11   ar
    34     3     4    1
@<TRIPOS>MOLECULE
*****
 31 34 0 0 0
SMALL
GASTEIGER

@<TRIPOS>ATOM
      1 C          63.5367   89.7240   12.2354 C.2     1  UNL1        0.2567
      2 O          63.2636   90.8274   11.2567 O.2     1  UNL1       -0.2696
      3 N          64.4882   89.9491   13.3730 N.am    1  UNL1       -0.2656
      4 H          64.6675   89.2249   14.0154 H       1  UNL1        0.1566
      5 C          65.1665   91.2775   13.5318 C.ar    1  UNL1        0.1345
      6 C          65.5914   91.7449   14.8923 C.ar    1  UNL1        0.0345
      7 C          66.2696   93.0732   15.0511 C.ar    1  UNL1        0.0045
      8 C          66.5231   93.9343   13.8493 C.ar    1  UNL1        0.0224
      9 C          66.0982   93.4670   12.4888 C.ar    1  UNL1        0.1185
     10 N          65.4199   92.1386   12.3300 N.ar    1  UNL1       -0.2274
     11 C          66.3516   94.3281   11.2869 C.ar    1  UNL1        0.1842
     12 N          65.7318   95.6667   11.0148 N.ar    1  UNL1       -0.1271
     13 N          66.2665   96.1676    9.7060 N.ar    1  UNL1       -0.1255
     14 C          67.2168   95.1387    9.1691 C.ar    1  UNL1        0.2026
     15 N          67.2694   94.0018   10.1462 N.ar    1  UNL1       -0.2935
     16 C          68.0949   92.7571   10.0071 C.3     1  UNL1        0.0886
     17 C          68.4160   91.9309   11.2172 C.3     1  UNL1        0.0246
     18 C          68.5993   92.3386    8.6578 C.3     1  UNL1        0.0246
     19 C          61.5667   88.1457   11.3562 C.ar    1  UNL1        0.2482
     20 N          61.2627   86.6795   11.4447 N.ar    1  UNL1       -0.1258
     21 N          62.3666   86.0232   12.2199 N.ar    1  UNL1       -0.2061
     22 C          63.3528   87.0838   12.6104 C.ar    1  UNL1        0.1115
     23 C          62.8584   88.3956   12.0767 C.ar    1  UNL1        0.1273
     24 C          62.4666   84.5627   12.5471 C.ar    1  UNL1        0.1832
     25 C          62.7148   83.5648   11.4550 C.ar    1  UNL1        0.1376
     26 N          62.8148   82.1044   11.7822 N.ar    1  UNL1       -0.2375
     27 C          62.6667   81.6419   13.2014 C.ar    1  UNL1        0.1196
     28 C          62.4186   82.6398   14.2935 C.ar    1  UNL1        0.1212
     29 N          62.3186   84.1002   13.9663 N.ar    1  UNL1       -0.2221
     30 C          59.8010   90.0483   11.4682 C.3     1  UNL1        0.2543
     31 O          60.7265   89.1803   10.6681 O.3     1  UNL1       -0.4551
@<TRIPOS>BOND
     1    30    31    1
     2    31    19    1
     3    19    20   ar
     4    20    21   ar
     5    21    24    1
     6    24    25   ar
     7    25    26   ar
     8    26    27   ar
     9    27    28   ar
    10    28    29   ar
    11    21    22   ar
    12    22    23   ar
    13    23     1    1
    14     1     2    2
    15     1     3   am
    16     3     5    1
    17     5     6   ar
    18     6     7   ar
    19     7     8   ar
    20     8     9   ar
    21     9    11    1
    22    11    12   ar
    23    12    13   ar
    24    13    14   ar
    25    14    15   ar
    26    15    16    1
    27    16    17    1
    28    16    18    1
    29     9    10   ar
    30    23    19   ar
    31    10     5   ar
    32    29    24   ar
    33    15    11   ar
    34     3     4    1
@<TRIPOS>MOLECULE
*****
 31 34 0 0 0
SMALL
GASTEIGER

@<TRIPOS>ATOM
      1 C          63.9820   89.2145   13.6508 C.2     1  UNL1        0.2567
      2 O          62.8113   88.8275   12.7965 O.2     1  UNL1       -0.2696
      3 N          64.5680   88.2243   14.6131 N.am    1  UNL1       -0.2656
      4 H          65.3364   88.4783   15.1737 H       1  UNL1        0.1566
      5 C          63.9834   86.8471   14.7211 C.ar    1  UNL1        0.1345
      6 C          63.4308   86.3676   16.0306 C.ar    1  UNL1        0.0345
      7 C          62.8463   84.9905   16.1386 C.ar    1  UNL1        0.0045
      8 C          62.8142   84.0929   14.9373 C.ar    1  UNL1        0.0224
      9 C          63.3668   84.5724   13.6279 C.ar    1  UNL1        0.1185
     10 N          63.9514   85.9496   13.5198 N.ar    1  UNL1       -0.2274
     11 C          63.3348   83.6748   12.4264 C.ar    1  UNL1        0.1842
     12 N          63.6095   84.0868   11.0104 N.ar    1  UNL1       -0.1271
     13 N          63.4670   82.8743   10.1391 N.ar    1  UNL1       -0.1255
     14 C          63.1043   81.7129   11.0163 C.ar    1  UNL1        0.2026
     15 N          63.0226   82.2077   12.4300 N.ar    1  UNL1       -0.2935
     16 C          62.6875   81.3805   13.6357 C.3     1  UNL1        0.0886
     17 C          61.2583   81.2214   14.0624 C.3     1  UNL1        0.0246
     18 C          63.7816   80.7126   14.4147 C.3     1  UNL1        0.0246
     19 C          64.8907   91.5043   14.6882 C.ar    1  UNL1        0.2482
     20 N          65.4541   92.7746   14.1236 N.ar    1  UNL1       -0.1258
     21 N          65.4782   92.6471   12.6292 N.ar    1  UNL1       -0.2061
     22 C          64.9297   91.2980   12.2702 C.ar    1  UNL1        0.1115
     23 C          64.5666   90.5917   13.5427 C.ar    1  UNL1        0.1273
     24 C          65.9654   93.6864   11.6634 C.ar    1  UNL1        0.1832
     25 C          66.3765   93.2878   10.2770 C.ar    1  UNL1        0.1376
     26 N          66.8636   94.3270    9.3113 N.ar    1  UNL1       -0.2375
     27 C          66.9396   95.7648    9.7320 C.ar    1  UNL1        0.1196
     28 C          66.5284   96.1634   11.1183 C.ar    1  UNL1        0.1212
     29 N          66.0413   95.1242   12.0840 N.ar    1  UNL1       -0.2221
     30 C          63.3815   90.6320   16.6147 C.3     1  UNL1        0.2543
     31 O          64.6871   91.2000   16.1428 O.3     1  UNL1       -0.4551
@<TRIPOS>BOND
     1    30    31    1
     2    31    19    1
     3    19    20   ar
     4    20    21   ar
     5    21    24    1
     6    24    25   ar
     7    25    26   ar
     8    26    27   ar
     9    27    28   ar
    10    28    29   ar
    11    21    22   ar
    12    22    23   ar
    13    23     1    1
    14     1     2    2
    15     1     3   am
    16     3     5    1
    17     5     6   ar
    18     6     7   ar
    19     7     8   ar
    20     8     9   ar
    21     9    11    1
    22    11    12   ar
    23    12    13   ar
    24    13    14   ar
    25    14    15   ar
    26    15    16    1
    27    16    17    1
    28    16    18    1
    29     9    10   ar
    30    23    19   ar
    31    10     5   ar
    32    29    24   ar
    33    15    11   ar
    34     3     4    1
@<TRIPOS>MOLECULE
*****
 31 34 0 0 0
SMALL
GASTEIGER

@<TRIPOS>ATOM
      1 C          62.8775   86.3181   12.0588 C.2     1  UNL1        0.2567
      2 O          62.3715   86.7840   10.7258 O.2     1  UNL1       -0.2696
      3 N          63.4390   87.3083   13.0356 N.am    1  UNL1       -0.2656
      4 H          63.7711   87.0025   13.9105 H       1  UNL1        0.1566
      5 C          63.4946   88.7643   12.6794 C.ar    1  UNL1        0.1345
      6 C          62.6511   89.2949   11.5582 C.ar    1  UNL1        0.0345
      7 C          62.7067   90.7509   11.2021 C.ar    1  UNL1        0.0045
      8 C          63.6057   91.6764   11.9671 C.ar    1  UNL1        0.0224
      9 C          64.4491   91.1458   13.0883 C.ar    1  UNL1        0.1185
     10 N          64.3936   89.6897   13.4444 N.ar    1  UNL1       -0.2274
     11 C          65.3482   92.0713   13.8533 C.ar    1  UNL1        0.1842
     12 N          65.4619   92.1555   15.3467 N.ar    1  UNL1       -0.1271
     13 N          66.4753   93.2113   15.6755 N.ar    1  UNL1       -0.1255
     14 C          66.9880   93.7796   14.3856 C.ar    1  UNL1        0.2026
     15 N          66.2915   93.0750   13.2594 N.ar    1  UNL1       -0.2935
     16 C          66.5013   93.3295   11.7960 C.3     1  UNL1        0.0886
     17 C          67.2789   92.3496   10.9683 C.3     1  UNL1        0.0246
     18 C          65.9335   94.5639   11.1604 C.3     1  UNL1        0.0246
     19 C          62.7334   84.2963   13.8014 C.ar    1  UNL1        0.2482
     20 N          62.7019   82.8007   13.6905 N.ar    1  UNL1       -0.1258
     21 N          62.7709   82.4422   12.2356 N.ar    1  UNL1       -0.2061
     22 C          62.8451   83.7162   11.4473 C.ar    1  UNL1        0.1115
     23 C          62.8219   84.8621   12.4150 C.ar    1  UNL1        0.1273
     24 C          62.7665   81.0534   11.6686 C.ar    1  UNL1        0.1832
     25 C          62.5264   79.8770   12.5677 C.ar    1  UNL1        0.1376
     26 N          62.5220   78.4884   12.0007 N.ar    1  UNL1       -0.2375
     27 C          62.7577   78.2761   10.5346 C.ar    1  UNL1        0.1196
     28 C          62.9978   79.4525    9.6355 C.ar    1  UNL1        0.1212
     29 N          63.0022   80.8412   10.2025 N.ar    1  UNL1       -0.2221
     30 C          63.9492   85.3689   15.8315 C.3     1  UNL1        0.2543
     31 O          62.6849   85.0872   15.0750 O.3     1  UNL1       -0.4551
@<TRIPOS>BOND
     1    30    31    1
     2    31    19    1
     3    19    20   ar
     4    20    21   ar
     5    21    24    1
     6    24    25   ar
     7    25    26   ar
     8    26    27   ar
     9    27    28   ar
    10    28    29   ar
    11    21    22   ar
    12    22    23   ar
    13    23     1    1
    14     1     2    2
    15     1     3   am
    16     3     5    1
    17     5     6   ar
    18     6     7   ar
    19     7     8   ar
    20     8     9   ar
    21     9    11    1
    22    11    12   ar
    23    12    13   ar
    24    13    14   ar
    25    14    15   ar
    26    15    16    1
    27    16    17    1
    28    16    18    1
    29     9    10   ar
    30    23    19   ar
    31    10     5   ar
    32    29    24   ar
    33    15    11   ar
    34     3     4    1
@<TRIPOS>MOLECULE
*****
 31 34 0 0 0
SMALL
GASTEIGER

@<TRIPOS>ATOM
      1 C          61.2637   87.9761   10.5443 C.2     1  UNL1        0.2567
      2 O          60.5483   87.1736   11.5903 O.2     1  UNL1       -0.2696
      3 N          62.5756   88.6281   10.8663 N.am    1  UNL1       -0.2656
      4 H          63.0452   89.1548   10.1798 H       1  UNL1        0.1566
      5 C          63.1721   88.4777   12.2344 C.ar    1  UNL1        0.1345
      6 C          63.4885   87.1122   12.7686 C.ar    1  UNL1        0.0345
      7 C          64.0849   86.9618   14.1366 C.ar    1  UNL1        0.0045
      8 C          64.3649   88.1768   14.9705 C.ar    1  UNL1        0.0224
      9 C          64.0485   89.5422   14.4363 C.ar    1  UNL1        0.1185
     10 N          63.4521   89.6927   13.0682 N.ar    1  UNL1       -0.2274
     11 C          64.3285   90.7573   15.2702 C.ar    1  UNL1        0.1842
     12 N          63.6359   91.1287   16.5478 N.ar    1  UNL1       -0.1271
     13 N          64.2296   92.4151   17.0400 N.ar    1  UNL1       -0.1255
     14 C          65.2892   92.8390   16.0666 C.ar    1  UNL1        0.2026
     15 N          65.3504   91.8144   14.9728 N.ar    1  UNL1       -0.2935
     16 C          66.2716   91.8420   13.7892 C.3     1  UNL1        0.0886
     17 C          65.7274   92.1316   12.4218 C.3     1  UNL1        0.0246
     18 C          67.7371   91.5799   13.9732 C.3     1  UNL1        0.0246
     19 C          60.4992   87.0336    8.1626 C.ar    1  UNL1        0.2482
     20 N          59.8623   87.6279    6.9415 N.ar    1  UNL1       -0.1258
     21 N          59.6367   89.0881    7.2004 N.ar    1  UNL1       -0.2061
     22 C          60.1342   89.3963    8.5815 C.ar    1  UNL1        0.1115
     23 C          60.6673   88.1265    9.1762 C.ar    1  UNL1        0.1273
     24 C          59.0215   90.0681    6.2457 C.ar    1  UNL1        0.1832
     25 C          57.5303   90.1392    6.1012 C.ar    1  UNL1        0.1376
     26 N          56.9152   91.1192    5.1466 N.ar    1  UNL1       -0.2375
     27 C          57.7914   92.0280    4.3365 C.ar    1  UNL1        0.1196
     28 C          59.2827   91.9569    4.4810 C.ar    1  UNL1        0.1212
     29 N          59.8978   90.9770    5.4357 N.ar    1  UNL1       -0.2221
     30 C          62.3423   85.2044    8.2455 C.3     1  UNL1        0.2543
     31 O          60.8980   85.5984    8.3391 O.3     1  UNL1       -0.4551
@<TRIPOS>BOND
     1    30    31    1
     2    31    19    1
     3    19    20   ar
     4    20    21   ar
     5    21    24    1
     6    24    25   ar
     7    25    26   ar
     8    26    27   ar
     9    27    28   ar
    10    28    29   ar
    11    21    22   ar
    12    22    23   ar
    13    23     1    1
    14     1     2    2
    15     1     3   am
    16     3     5    1
    17     5     6   ar
    18     6     7   ar
    19     7     8   ar
    20     8     9   ar
    21     9    11    1
    22    11    12   ar
    23    12    13   ar
    24    13    14   ar
    25    14    15   ar
    26    15    16    1
    27    16    17    1
    28    16    18    1
    29     9    10   ar
    30    23    19   ar
    31    10     5   ar
    32    29    24   ar
    33    15    11   ar
    34     3     4    1
@<TRIPOS>MOLECULE
*****
 31 34 0 0 0
SMALL
GASTEIGER

@<TRIPOS>ATOM
      1 C          61.6912   88.7218   10.7247 C.2     1  UNL1        0.2567
      2 O          61.4499   87.6709   11.7674 O.2     1  UNL1       -0.2696
      3 N          62.6691   89.8284   10.9875 N.am    1  UNL1       -0.2656
      4 H          62.8274   90.5182   10.3031 H       1  UNL1        0.1566
      5 C          63.4057   89.8841   12.2930 C.ar    1  UNL1        0.1345
      6 C          64.4511   90.9356   12.5200 C.ar    1  UNL1        0.0345
      7 C          65.1876   90.9913   13.8255 C.ar    1  UNL1        0.0045
      8 C          64.8788   89.9955   14.9040 C.ar    1  UNL1        0.0224
      9 C          63.8334   88.9441   14.6769 C.ar    1  UNL1        0.1185
     10 N          63.0968   88.8884   13.3714 N.ar    1  UNL1       -0.2274
     11 C          63.5245   87.9483   15.7554 C.ar    1  UNL1        0.1842
     12 N          62.9099   88.2549   17.0889 N.ar    1  UNL1       -0.1271
     13 N          62.7817   86.9672   17.8473 N.ar    1  UNL1       -0.1255
     14 C          63.3169   85.8647   16.9826 C.ar    1  UNL1        0.2026
     15 N          63.7761   86.4710   15.6897 N.ar    1  UNL1       -0.2935
     16 C          64.3807   85.7301   14.5339 C.3     1  UNL1        0.0886
     17 C          65.8331   85.3560   14.5601 C.3     1  UNL1        0.0246
     18 C          63.5329   85.3633   13.3522 C.3     1  UNL1        0.0246
     19 C          60.5946   87.4220    8.6624 C.ar    1  UNL1        0.2482
     20 N          59.8662   87.8318    7.4168 N.ar    1  UNL1       -0.1258
     21 N          59.7760   89.3290    7.4038 N.ar    1  UNL1       -0.2061
     22 C          60.4487   89.8446    8.6413 C.ar    1  UNL1        0.1115
     23 C          60.9546   88.6661    9.4192 C.ar    1  UNL1        0.1273
     24 C          59.1270   90.1640    6.3399 C.ar    1  UNL1        0.1832
     25 C          57.6341   90.1668    6.1953 C.ar    1  UNL1        0.1376
     26 N          56.9852   91.0018    5.1315 N.ar    1  UNL1       -0.2375
     27 C          57.8293   91.8339    4.2123 C.ar    1  UNL1        0.1196
     28 C          59.3223   91.8311    4.3568 C.ar    1  UNL1        0.1212
     29 N          59.9712   90.9961    5.4206 N.ar    1  UNL1       -0.2221
     30 C          62.3274   85.5303    9.0731 C.3     1  UNL1        0.2543
     31 O          60.9079   86.0153    9.0781 O.3     1  UNL1       -0.4551
@<TRIPOS>BOND
     1    30    31    1
     2    31    19    1
     3    19    20   ar
     4    20    21   ar
     5    21    24    1
     6    24    25   ar
     7    25    26   ar
     8    26    27   ar
     9    27    28   ar
    10    28    29   ar
    11    21    22   ar
    12    22    23   ar
    13    23     1    1
    14     1     2    2
    15     1     3   am
    16     3     5    1
    17     5     6   ar
    18     6     7   ar
    19     7     8   ar
    20     8     9   ar
    21     9    11    1
    22    11    12   ar
    23    12    13   ar
    24    13    14   ar
    25    14    15   ar
    26    15    16    1
    27    16    17    1
    28    16    18    1
    29     9    10   ar
    30    23    19   ar
    31    10     5   ar
    32    29    24   ar
    33    15    11   ar
    34     3     4    1
@<TRIPOS>MOLECULE
*****
 31 34 0 0 0
SMALL
GASTEIGER

@<TRIPOS>ATOM
      1 C          64.1507   87.1015   15.1719 C.2     1  UNL1        0.2567
      2 O          65.6490   87.1635   15.1393 O.2     1  UNL1       -0.2696
      3 N          63.3502   88.3646   15.2891 N.am    1  UNL1       -0.2656
      4 H          62.3668   88.3239   15.3105 H       1  UNL1        0.1566
      5 C          64.0481   89.6897   15.3738 C.ar    1  UNL1        0.1345
      6 C          63.6642   90.6728   16.4396 C.ar    1  UNL1        0.0345
      7 C          64.3620   91.9978   16.5243 C.ar    1  UNL1        0.0045
      8 C          65.4438   92.3398   15.5431 C.ar    1  UNL1        0.0224
      9 C          65.8277   91.3567   14.4772 C.ar    1  UNL1        0.1185
     10 N          65.1298   90.0316   14.3925 N.ar    1  UNL1       -0.2274
     11 C          66.9095   91.6986   13.4959 C.ar    1  UNL1        0.1842
     12 N          68.3841   91.5334   13.7161 N.ar    1  UNL1       -0.1271
     13 N          69.0924   91.9985   12.4785 N.ar    1  UNL1       -0.1255
     14 C          68.0559   92.4511   11.4934 C.ar    1  UNL1        0.2026
     15 N          66.7067   92.2658   12.1222 N.ar    1  UNL1       -0.2935
     16 C          65.3864   92.5906   11.4885 C.3     1  UNL1        0.0886
     17 C          65.1921   93.9045   10.7914 C.3     1  UNL1        0.0246
     18 C          64.2605   91.6015   11.5519 C.3     1  UNL1        0.0246
     19 C          62.3778   85.2855   16.0110 C.ar    1  UNL1        0.2482
     20 N          61.9680   83.9153   15.5586 N.ar    1  UNL1       -0.1258
     21 N          62.7898   83.5594   14.3553 N.ar    1  UNL1       -0.2061
     22 C          63.7074   84.7096   14.0639 C.ar    1  UNL1        0.1115
     23 C          63.4528   85.7764   15.0872 C.ar    1  UNL1        0.1273
     24 C          62.7082   82.2781   13.5794 C.ar    1  UNL1        0.1832
     25 C          62.9904   82.2741   12.1063 C.ar    1  UNL1        0.1376
     26 N          62.9088   80.9929   11.3305 N.ar    1  UNL1       -0.2375
     27 C          62.5450   79.7157   12.0280 C.ar    1  UNL1        0.1196
     28 C          62.2627   79.7197   13.5012 C.ar    1  UNL1        0.1212
     29 N          62.3443   81.0009   14.2769 N.ar    1  UNL1       -0.2221
     30 C          62.7233   86.5378   18.2610 C.3     1  UNL1        0.2543
     31 O          61.8119   86.0334   17.1816 O.3     1  UNL1       -0.4551
@<TRIPOS>BOND
     1    30    31    1
     2    31    19    1
     3    19    20   ar
     4    20    21   ar
     5    21    24    1
     6    24    25   ar
     7    25    26   ar
     8    26    27   ar
     9    27    28   ar
    10    28    29   ar
    11    21    22   ar
    12    22    23   ar
    13    23     1    1
    14     1     2    2
    15     1     3   am
    16     3     5    1
    17     5     6   ar
    18     6     7   ar
    19     7     8   ar
    20     8     9   ar
    21     9    11    1
    22    11    12   ar
    23    12    13   ar
    24    13    14   ar
    25    14    15   ar
    26    15    16    1
    27    16    17    1
    28    16    18    1
    29     9    10   ar
    30    23    19   ar
    31    10     5   ar
    32    29    24   ar
    33    15    11   ar
    34     3     4    1
@<TRIPOS>MOLECULE
*****
 31 34 0 0 0
SMALL
GASTEIGER

@<TRIPOS>ATOM
      1 C          61.0662   87.9192   10.2391 C.2     1  UNL1        0.2567
      2 O          60.3128   87.1360   11.2730 O.2     1  UNL1       -0.2696
      3 N          62.4270   88.4648   10.5560 N.am    1  UNL1       -0.2656
      4 H          62.9215   88.9788    9.8775 H       1  UNL1        0.1566
      5 C          63.0344   88.2271   11.9068 C.ar    1  UNL1        0.1345
      6 C          63.5490   89.3835   12.7118 C.ar    1  UNL1        0.0345
      7 C          64.1563   89.1458   14.0624 C.ar    1  UNL1        0.0045
      8 C          64.2492   87.7517   14.6083 C.ar    1  UNL1        0.0224
      9 C          63.7347   86.5954   13.8033 C.ar    1  UNL1        0.1185
     10 N          63.1273   86.8330   12.4525 N.ar    1  UNL1       -0.2274
     11 C          63.8275   85.2012   14.3491 C.ar    1  UNL1        0.1842
     12 N          64.0096   84.8290   15.7908 N.ar    1  UNL1       -0.1271
     13 N          64.0492   83.3323   15.8816 N.ar    1  UNL1       -0.1255
     14 C          63.8916   82.7795   14.4962 C.ar    1  UNL1        0.2026
     15 N          63.7546   83.9345   13.5490 N.ar    1  UNL1       -0.2935
     16 C          63.5760   83.8395   12.0627 C.3     1  UNL1        0.0886
     17 C          64.6820   83.2957   11.2076 C.3     1  UNL1        0.0246
     18 C          62.2915   84.2883   11.4314 C.3     1  UNL1        0.0246
     19 C          60.0697   87.0994    7.8981 C.ar    1  UNL1        0.2482
     20 N          59.5042   87.7828    6.6884 N.ar    1  UNL1       -0.1258
     21 N          59.5439   89.2625    6.9310 N.ar    1  UNL1       -0.2061
     22 C          60.1338   89.4937    8.2906 C.ar    1  UNL1        0.1115
     23 C          60.4588   88.1569    8.8883 C.ar    1  UNL1        0.1273
     24 C          59.0758   90.3246    5.9807 C.ar    1  UNL1        0.1832
     25 C          60.0747   91.1195    5.1932 C.ar    1  UNL1        0.1376
     26 N          59.6065   92.1815    4.2429 N.ar    1  UNL1       -0.2375
     27 C          58.1395   92.4486    4.0803 C.ar    1  UNL1        0.1196
     28 C          57.1406   91.6537    4.8678 C.ar    1  UNL1        0.1212
     29 N          57.6087   90.5917    5.8180 N.ar    1  UNL1       -0.2221
     30 C          61.2911   84.8741    7.3448 C.3     1  UNL1        0.2543
     31 O          60.2196   85.6187    8.0848 O.3     1  UNL1       -0.4551
@<TRIPOS>BOND
     1    30    31    1
     2    31    19    1
     3    19    20   ar
     4    20    21   ar
     5    21    24    1
     6    24    25   ar
     7    25    26   ar
     8    26    27   ar
     9    27    28   ar
    10    28    29   ar
    11    21    22   ar
    12    22    23   ar
    13    23     1    1
    14     1     2    2
    15     1     3   am
    16     3     5    1
    17     5     6   ar
    18     6     7   ar
    19     7     8   ar
    20     8     9   ar
    21     9    11    1
    22    11    12   ar
    23    12    13   ar
    24    13    14   ar
    25    14    15   ar
    26    15    16    1
    27    16    17    1
    28    16    18    1
    29     9    10   ar
    30    23    19   ar
    31    10     5   ar
    32    29    24   ar
    33    15    11   ar
    34     3     4    1
