@<TRIPOS>MOLECULE
*****
 43 45 0 0 0
SMALL
GASTEIGER

@<TRIPOS>ATOM
      1 C          63.4026   86.9093   16.2955 C.3     1  UNL1        0.2120
      2 O          63.8626   86.7513   14.8766 O.3     1  UNL1       -0.3763
      3 H          64.3520   87.5437   14.6052 H       1  UNL1        0.2107
      4 C          62.9426   87.0672   17.7144 C.3     1  UNL1        0.4226
      5 F          62.4825   87.2251   19.1334 F       1  UNL1       -0.1675
      6 F          62.5053   85.6324   17.7323 F       1  UNL1       -0.1675
      7 F          63.3798   88.5019   17.6965 F       1  UNL1       -0.1675
      8 C          63.3284   88.3953   16.1060 C.3     1  UNL1        0.1269
      9 C          63.8105   90.4642   14.6102 C.2     1  UNL1        0.2502
     10 O          63.8213   91.3414   15.8270 O.2     1  UNL1       -0.2700
     11 N          63.5641   88.9912   14.7498 N.am    1  UNL1       -0.2982
     12 H          63.5571   88.4155   13.9512 H       1  UNL1        0.1498
     13 N          66.0536   92.7151   13.8675 N.pl3   1  UNL1       -0.3424
     14 C          65.0773   92.0947   12.9126 C.ar    1  UNL1        0.1327
     15 C          64.0462   91.0600   13.2540 C.ar    1  UNL1        0.1053
     16 C          63.2923   90.7259   12.0010 C.ar    1  UNL1        0.1278
     17 N          63.8574   91.5540   10.8852 N.ar    1  UNL1       -0.1622
     18 N          64.9606   92.3999   11.4486 N.ar    1  UNL1       -0.2163
     19 H          66.0528   92.4480   14.8150 H       1  UNL1        0.1437
     20 H          66.6952   93.3893   13.5466 H       1  UNL1        0.1437
     21 C          65.7997   93.3792   10.6825 C.ar    1  UNL1        0.0843
     22 C          67.0396   92.9143    9.9779 C.ar    1  UNL1        0.0215
     23 C          67.8787   93.8936    9.2118 C.ar    1  UNL1        0.0312
     24 C          67.4780   95.3378    9.1505 C.ar    1  UNL1        0.1402
     25 F          68.3172   96.3170    8.3844 F       1  UNL1       -0.2042
     26 C          66.2382   95.8027    9.8551 C.ar    1  UNL1        0.0312
     27 C          65.3990   94.8234   10.6212 C.ar    1  UNL1        0.0215
     28 C          63.4769   85.4231   16.4850 C.3     1  UNL1        0.1308
     29 N          63.6820   84.5254   15.3009 N.am    1  UNL1       -0.2707
     30 C          62.5330   84.2130   14.3885 C.2     1  UNL1        0.2508
     31 O          61.1789   84.7984   14.6603 O.2     1  UNL1       -0.2698
     32 C          62.7381   83.3153   13.2045 C.ar    1  UNL1        0.0747
     33 C          62.5613   81.8327   13.3478 C.ar    1  UNL1        0.0628
     34 CL         62.1794   81.2478   14.6752 Cl      1  UNL1       -0.0821
     35 C          62.7664   80.9350   12.1637 C.ar    1  UNL1        0.0116
     36 C          63.1483   81.5199   10.8363 C.ar    1  UNL1        0.0017
     37 C          63.3252   83.0025   10.6930 C.ar    1  UNL1        0.0116
     38 C          63.1201   83.9002   11.8771 C.ar    1  UNL1        0.0628
     39 CL         63.2969   85.3828   11.7337 Cl      1  UNL1       -0.0821
     40 C          65.0360   83.9400   15.0292 C.3     1  UNL1        0.1255
     41 C          66.0835   84.7617   14.3381 C.3     1  UNL1        0.1586
     42 O          66.8560   85.7924   15.1068 O.3     1  UNL1       -0.3802
     43 H          66.2566   86.4998   15.3917 H       1  UNL1        0.2105
@<TRIPOS>BOND
     1    13    14    1
     2    14    15   ar
     3    15     9    1
     4     9    10    2
     5     9    11   am
     6    11     8    1
     7     8     1    1
     8     1     2    1
     9     1    28    1
    10    28    29    1
    11    29    40    1
    12    40    41    1
    13    41    42    1
    14    29    30   am
    15    30    31    2
    16    30    32    1
    17    32    33   ar
    18    33    34    1
    19    33    35   ar
    20    35    36   ar
    21    36    37   ar
    22    37    38   ar
    23    38    39    1
    24     1     4    1
    25     4     5    1
    26     4     6    1
    27     4     7    1
    28    15    16   ar
    29    16    17   ar
    30    17    18   ar
    31    18    21    1
    32    21    22   ar
    33    22    23   ar
    34    23    24   ar
    35    24    25    1
    36    24    26   ar
    37    26    27   ar
    38    18    14   ar
    39    27    21   ar
    40    38    32   ar
    41    13    19    1
    42    13    20    1
    43    11    12    1
    44     2     3    1
    45    42    43    1
@<TRIPOS>MOLECULE
*****
 43 45 0 0 0
SMALL
GASTEIGER

@<TRIPOS>ATOM
      1 C          63.1972   86.9630   16.4936 C.3     1  UNL1        0.2120
      2 O          63.5555   86.8564   15.0409 O.3     1  UNL1       -0.3763
      3 H          64.0110   87.6654   14.7601 H       1  UNL1        0.2107
      4 C          62.8389   87.0695   17.9462 C.3     1  UNL1        0.4226
      5 F          62.4805   87.1760   19.3989 F       1  UNL1       -0.1675
      6 F          62.4194   85.6293   17.9483 F       1  UNL1       -0.1675
      7 F          63.2584   88.5096   17.9440 F       1  UNL1       -0.1675
      8 C          63.0855   88.4525   16.3568 C.3     1  UNL1        0.1269
      9 C          64.2015   90.7010   15.6870 C.2     1  UNL1        0.2502
     10 O          63.2855   91.4341   16.6217 O.2     1  UNL1       -0.2700
     11 N          64.1015   89.2103   15.5546 N.am    1  UNL1       -0.2982
     12 H          64.7027   88.7292   14.9411 H       1  UNL1        0.1498
     13 N          64.0428   91.3239   12.4876 N.pl3   1  UNL1       -0.3424
     14 C          65.1445   91.7451   13.4142 C.ar    1  UNL1        0.1327
     15 C          65.2175   91.4588   14.8849 C.ar    1  UNL1        0.1053
     16 C          66.4849   92.0633   15.4124 C.ar    1  UNL1        0.1278
     17 N          67.1952   92.7232   14.2679 N.ar    1  UNL1       -0.1622
     18 N          66.3668   92.5266   13.0329 N.ar    1  UNL1       -0.2163
     19 H          63.2775   90.8106   12.8341 H       1  UNL1        0.1437
     20 H          64.0849   91.5608   11.5330 H       1  UNL1        0.1437
     21 C          66.7019   93.0240   11.6580 C.ar    1  UNL1        0.0843
     22 C          67.6677   92.2623   10.7996 C.ar    1  UNL1        0.0215
     23 C          68.0027   92.7597    9.4247 C.ar    1  UNL1        0.0312
     24 C          67.3719   94.0189    8.9083 C.ar    1  UNL1        0.1402
     25 F          67.7070   94.5162    7.5334 F       1  UNL1       -0.2042
     26 C          66.4061   94.7806    9.7667 C.ar    1  UNL1        0.0312
     27 C          66.0711   94.2832   11.1416 C.ar    1  UNL1        0.0215
     28 C          63.3089   85.4733   16.6303 C.3     1  UNL1        0.1308
     29 N          63.5584   84.6255   15.4183 N.am    1  UNL1       -0.2707
     30 C          62.4310   84.3049   14.4822 C.2     1  UNL1        0.2508
     31 O          61.0541   84.8321   14.7582 O.2     1  UNL1       -0.2698
     32 C          62.6805   83.4571   13.2703 C.ar    1  UNL1        0.0747
     33 C          63.0592   84.1011   11.9696 C.ar    1  UNL1        0.0628
     34 CL         63.1884   85.5929   11.8809 Cl      1  UNL1       -0.0821
     35 C          63.3088   83.2533   10.7575 C.ar    1  UNL1        0.0116
     36 C          63.1796   81.7615   10.8462 C.ar    1  UNL1        0.0017
     37 C          62.8009   81.1175   12.1470 C.ar    1  UNL1        0.0116
     38 C          62.5514   81.9653   13.3590 C.ar    1  UNL1        0.0628
     39 CL         62.1727   81.3213   14.6596 Cl      1  UNL1       -0.0821
     40 C          64.9353   84.0983   15.1424 C.3     1  UNL1        0.1255
     41 C          65.9062   84.9175   14.3447 C.3     1  UNL1        0.1586
     42 O          67.3680   84.8840   14.6791 O.3     1  UNL1       -0.3802
     43 H          67.5081   85.2745   15.5559 H       1  UNL1        0.2105
@<TRIPOS>BOND
     1    13    14    1
     2    14    15   ar
     3    15     9    1
     4     9    10    2
     5     9    11   am
     6    11     8    1
     7     8     1    1
     8     1     2    1
     9     1    28    1
    10    28    29    1
    11    29    40    1
    12    40    41    1
    13    41    42    1
    14    29    30   am
    15    30    31    2
    16    30    32    1
    17    32    33   ar
    18    33    34    1
    19    33    35   ar
    20    35    36   ar
    21    36    37   ar
    22    37    38   ar
    23    38    39    1
    24     1     4    1
    25     4     5    1
    26     4     6    1
    27     4     7    1
    28    15    16   ar
    29    16    17   ar
    30    17    18   ar
    31    18    21    1
    32    21    22   ar
    33    22    23   ar
    34    23    24   ar
    35    24    25    1
    36    24    26   ar
    37    26    27   ar
    38    18    14   ar
    39    27    21   ar
    40    38    32   ar
    41    13    19    1
    42    13    20    1
    43    11    12    1
    44     2     3    1
    45    42    43    1
@<TRIPOS>MOLECULE
*****
 43 45 0 0 0
SMALL
GASTEIGER

@<TRIPOS>ATOM
      1 C          64.1324   91.0597   14.5584 C.3     1  UNL1        0.2120
      2 O          62.8821   90.6228   13.8544 O.3     1  UNL1       -0.3763
      3 H          62.3526   90.0691   14.4494 H       1  UNL1        0.2107
      4 C          65.3828   91.4966   15.2624 C.3     1  UNL1        0.4226
      5 F          66.6332   91.9335   15.9665 F       1  UNL1       -0.1675
      6 F          64.5545   92.1938   16.3007 F       1  UNL1       -0.1675
      7 F          66.2110   90.7994   14.2241 F       1  UNL1       -0.1675
      8 C          64.1128   89.8011   15.3742 C.3     1  UNL1        0.1269
      9 C          63.9951   87.2068   15.3012 C.2     1  UNL1        0.2502
     10 O          63.0525   87.2167   16.4681 O.2     1  UNL1       -0.2700
     11 N          64.5252   88.4990   14.7543 N.am    1  UNL1       -0.2982
     12 H          65.1438   88.4925   13.9884 H       1  UNL1        0.1498
     13 N          62.2669   85.4800   13.1375 N.pl3   1  UNL1       -0.3424
     14 C          63.6130   85.1109   13.6867 C.ar    1  UNL1        0.1327
     15 C          64.4074   85.9046   14.6812 C.ar    1  UNL1        0.1053
     16 C          65.6865   85.1675   14.9469 C.ar    1  UNL1        0.1278
     17 N          65.6827   83.9183   14.1166 N.ar    1  UNL1       -0.1622
     18 N          64.4013   83.8833   13.3378 N.ar    1  UNL1       -0.2163
     19 H          61.8273   86.3112   13.4293 H       1  UNL1        0.1437
     20 H          61.8230   84.8910   12.4854 H       1  UNL1        0.1437
     21 C          63.9816   82.8092   12.3784 C.ar    1  UNL1        0.0843
     22 C          63.2182   81.6171   12.8744 C.ar    1  UNL1        0.0215
     23 C          62.7985   80.5431   11.9150 C.ar    1  UNL1        0.0312
     24 C          63.1424   80.6612   10.4597 C.ar    1  UNL1        0.1402
     25 F          62.7226   79.5871    9.5005 F       1  UNL1       -0.2042
     26 C          63.9058   81.8533    9.9638 C.ar    1  UNL1        0.0312
     27 C          64.3255   82.9273   10.9231 C.ar    1  UNL1        0.0215
     28 C          64.1520   92.3183   13.7425 C.3     1  UNL1        0.1308
     29 N          64.9258   92.3678   12.4585 N.am    1  UNL1       -0.2707
     30 C          66.0048   93.3932   12.2722 C.2     1  UNL1        0.2508
     31 O          66.3098   94.3689   13.3698 O.2     1  UNL1       -0.2698
     32 C          66.7787   93.4427   10.9882 C.ar    1  UNL1        0.0747
     33 C          67.8881   92.4635   10.7430 C.ar    1  UNL1        0.0628
     34 CL         68.2237   91.4347   11.7818 Cl      1  UNL1       -0.0821
     35 C          68.6621   92.5130    9.4590 C.ar    1  UNL1        0.0116
     36 C          68.3265   93.5417    8.4202 C.ar    1  UNL1        0.0017
     37 C          67.2170   94.5209    8.6655 C.ar    1  UNL1        0.0116
     38 C          66.4431   94.4714    9.9494 C.ar    1  UNL1        0.0628
     39 CL         65.3336   95.4506   10.1946 Cl      1  UNL1       -0.0821
     40 C          64.6208   91.3921   11.3609 C.3     1  UNL1        0.1255
     41 C          63.3936   91.5717   10.5173 C.3     1  UNL1        0.1586
     42 O          62.1354   90.8286   10.8559 O.3     1  UNL1       -0.3802
     43 H          62.2788   89.8771   10.7333 H       1  UNL1        0.2105
@<TRIPOS>BOND
     1    13    14    1
     2    14    15   ar
     3    15     9    1
     4     9    10    2
     5     9    11   am
     6    11     8    1
     7     8     1    1
     8     1     2    1
     9     1    28    1
    10    28    29    1
    11    29    40    1
    12    40    41    1
    13    41    42    1
    14    29    30   am
    15    30    31    2
    16    30    32    1
    17    32    33   ar
    18    33    34    1
    19    33    35   ar
    20    35    36   ar
    21    36    37   ar
    22    37    38   ar
    23    38    39    1
    24     1     4    1
    25     4     5    1
    26     4     6    1
    27     4     7    1
    28    15    16   ar
    29    16    17   ar
    30    17    18   ar
    31    18    21    1
    32    21    22   ar
    33    22    23   ar
    34    23    24   ar
    35    24    25    1
    36    24    26   ar
    37    26    27   ar
    38    18    14   ar
    39    27    21   ar
    40    38    32   ar
    41    13    19    1
    42    13    20    1
    43    11    12    1
    44     2     3    1
    45    42    43    1
@<TRIPOS>MOLECULE
*****
 43 45 0 0 0
SMALL
GASTEIGER

@<TRIPOS>ATOM
      1 C          61.3827   87.4048    9.3839 C.3     1  UNL1        0.2120
      2 O          62.7565   87.6168    9.9474 O.3     1  UNL1       -0.3763
      3 H          62.7556   88.4038   10.5145 H       1  UNL1        0.2107
      4 C          60.0089   87.1929    8.8203 C.3     1  UNL1        0.4226
      5 F          58.6350   86.9810    8.2567 F       1  UNL1       -0.1675
      6 F          59.4114   87.8449   10.0319 F       1  UNL1       -0.1675
      7 F          60.6065   86.5411    7.6087 F       1  UNL1       -0.1675
      8 C          61.1338   88.8831    9.4349 C.3     1  UNL1        0.1269
      9 C          62.5948   90.0971   11.2074 C.2     1  UNL1        0.2502
     10 O          61.8145   89.4349   12.3041 O.2     1  UNL1       -0.2700
     11 N          62.2544   89.8212    9.7728 N.am    1  UNL1       -0.2982
     12 H          62.7665   90.2558    9.0531 H       1  UNL1        0.1498
     13 N          64.4803   89.9538   13.8671 N.pl3   1  UNL1       -0.3424
     14 C          64.5821   90.9693   12.7679 C.ar    1  UNL1        0.1327
     15 C          63.7154   91.0352   11.5453 C.ar    1  UNL1        0.1053
     16 C          64.1661   92.2039   10.7201 C.ar    1  UNL1        0.1278
     17 N          65.3114   92.8603   11.4325 N.ar    1  UNL1       -0.1622
     18 N          65.5684   92.0973   12.6981 N.ar    1  UNL1       -0.2163
     19 H          63.7959   89.2475   13.8228 H       1  UNL1        0.1437
     20 H          65.0978   89.9936   14.6328 H       1  UNL1        0.1437
     21 C          66.6261   92.4077   13.7154 C.ar    1  UNL1        0.0843
     22 C          66.2498   93.0560   15.0147 C.ar    1  UNL1        0.0215
     23 C          67.3075   93.3664   16.0320 C.ar    1  UNL1        0.0312
     24 C          68.7415   93.0285   15.7500 C.ar    1  UNL1        0.1402
     25 F          69.7991   93.3390   16.7674 F       1  UNL1       -0.2042
     26 C          69.1178   92.3802   14.4508 C.ar    1  UNL1        0.0312
     27 C          68.0601   92.0698   13.4335 C.ar    1  UNL1        0.0215
     28 C          61.6318   85.9265    9.3328 C.3     1  UNL1        0.1308
     29 N          62.4766   85.2715   10.3850 N.am    1  UNL1       -0.2707
     30 C          62.0912   85.3792   11.8307 C.2     1  UNL1        0.2508
     31 O          60.8610   86.1420   12.2241 O.2     1  UNL1       -0.2698
     32 C          62.9360   84.7242   12.8829 C.ar    1  UNL1        0.0747
     33 C          63.8683   85.5508   13.7181 C.ar    1  UNL1        0.0628
     34 CL         63.9558   87.0324   13.5010 Cl      1  UNL1       -0.0821
     35 C          64.7132   84.8958   14.7703 C.ar    1  UNL1        0.0116
     36 C          64.6257   83.4141   14.9874 C.ar    1  UNL1        0.0017
     37 C          63.6934   82.5875   14.1521 C.ar    1  UNL1        0.0116
     38 C          62.8486   83.2426   13.0999 C.ar    1  UNL1        0.0628
     39 CL         61.9163   82.4160   12.2648 Cl      1  UNL1       -0.0821
     40 C          63.7068   84.5086    9.9916 C.3     1  UNL1        0.1255
     41 C          63.6204   83.0367    9.7161 C.3     1  UNL1        0.1586
     42 O          64.6856   82.1138   10.2296 O.3     1  UNL1       -0.3802
     43 H          65.5260   82.3126    9.7880 H       1  UNL1        0.2105
@<TRIPOS>BOND
     1    13    14    1
     2    14    15   ar
     3    15     9    1
     4     9    10    2
     5     9    11   am
     6    11     8    1
     7     8     1    1
     8     1     2    1
     9     1    28    1
    10    28    29    1
    11    29    40    1
    12    40    41    1
    13    41    42    1
    14    29    30   am
    15    30    31    2
    16    30    32    1
    17    32    33   ar
    18    33    34    1
    19    33    35   ar
    20    35    36   ar
    21    36    37   ar
    22    37    38   ar
    23    38    39    1
    24     1     4    1
    25     4     5    1
    26     4     6    1
    27     4     7    1
    28    15    16   ar
    29    16    17   ar
    30    17    18   ar
    31    18    21    1
    32    21    22   ar
    33    22    23   ar
    34    23    24   ar
    35    24    25    1
    36    24    26   ar
    37    26    27   ar
    38    18    14   ar
    39    27    21   ar
    40    38    32   ar
    41    13    19    1
    42    13    20    1
    43    11    12    1
    44     2     3    1
    45    42    43    1
@<TRIPOS>MOLECULE
*****
 43 45 0 0 0
SMALL
GASTEIGER

@<TRIPOS>ATOM
      1 C          63.2616   86.9278   16.3794 C.3     1  UNL1        0.2120
      2 O          63.6492   87.0092   14.9327 O.3     1  UNL1       -0.3763
      3 H          64.1071   87.8481   14.7674 H       1  UNL1        0.2107
      4 C          62.8740   86.8463   17.8262 C.3     1  UNL1        0.4226
      5 F          62.4864   86.7649   19.2730 F       1  UNL1       -0.1675
      6 F          62.5603   85.3889   17.6600 F       1  UNL1       -0.1675
      7 F          63.1877   88.3037   17.9922 F       1  UNL1       -0.1675
      8 C          63.1470   88.4224   16.4328 C.3     1  UNL1        0.1269
      9 C          64.1149   90.7619   15.8501 C.2     1  UNL1        0.2502
     10 O          63.1828   91.3943   16.8408 O.2     1  UNL1       -0.2700
     11 N          64.0970   89.2760   15.6461 N.am    1  UNL1       -0.2982
     12 H          64.7087   88.8610   14.9959 H       1  UNL1        0.1498
     13 N          64.1336   91.1227   12.6068 N.pl3   1  UNL1       -0.3424
     14 C          65.0734   91.7814   13.5725 C.ar    1  UNL1        0.1327
     15 C          65.0648   91.6156   15.0634 C.ar    1  UNL1        0.1053
     16 C          66.1730   92.4533   15.6293 C.ar    1  UNL1        0.1278
     17 N          66.8665   93.1368   14.4884 N.ar    1  UNL1       -0.1622
     18 N          66.1869   92.7216   13.2172 N.ar    1  UNL1       -0.2163
     19 H          63.4310   90.5181   12.9384 H       1  UNL1        0.1437
     20 H          64.2194   91.2951   11.6413 H       1  UNL1        0.1437
     21 C          66.5560   93.1681   11.8336 C.ar    1  UNL1        0.0843
     22 C          67.4212   92.2983   10.9706 C.ar    1  UNL1        0.0215
     23 C          67.7903   92.7448    9.5870 C.ar    1  UNL1        0.0312
     24 C          67.2942   94.0612    9.0664 C.ar    1  UNL1        0.1402
     25 F          67.6633   94.5076    7.6827 F       1  UNL1       -0.2042
     26 C          66.4289   94.9310    9.9293 C.ar    1  UNL1        0.0312
     27 C          66.0599   94.4845   11.3130 C.ar    1  UNL1        0.0215
     28 C          63.3762   85.4330   16.3260 C.3     1  UNL1        0.1308
     29 N          63.1674   84.7108   15.0280 N.am    1  UNL1       -0.2707
     30 C          64.2188   84.7689   13.9598 C.2     1  UNL1        0.2508
     31 O          65.4791   85.5493   14.1895 O.2     1  UNL1       -0.2698
     32 C          64.0100   84.0466   12.6618 C.ar    1  UNL1        0.0747
     33 C          64.4859   82.6328   12.5053 C.ar    1  UNL1        0.0628
     34 CL         65.1706   81.9412   13.6468 Cl      1  UNL1       -0.0821
     35 C          64.2771   81.9104   11.2073 C.ar    1  UNL1        0.0116
     36 C          63.5925   82.6020   10.0659 C.ar    1  UNL1        0.0017
     37 C          63.1166   84.0159   10.2224 C.ar    1  UNL1        0.0116
     38 C          63.3254   84.7382   11.5204 C.ar    1  UNL1        0.0628
     39 CL         62.8495   86.1521   11.6768 Cl      1  UNL1       -0.0821
     40 C          61.9072   83.9304   14.7983 C.3     1  UNL1        0.1255
     41 C          61.9797   82.4696   14.4653 C.3     1  UNL1        0.1586
     42 O          60.7836   81.5907   14.6816 O.3     1  UNL1       -0.3802
     43 H          60.5934   81.5315   15.6309 H       1  UNL1        0.2105
@<TRIPOS>BOND
     1    13    14    1
     2    14    15   ar
     3    15     9    1
     4     9    10    2
     5     9    11   am
     6    11     8    1
     7     8     1    1
     8     1     2    1
     9     1    28    1
    10    28    29    1
    11    29    40    1
    12    40    41    1
    13    41    42    1
    14    29    30   am
    15    30    31    2
    16    30    32    1
    17    32    33   ar
    18    33    34    1
    19    33    35   ar
    20    35    36   ar
    21    36    37   ar
    22    37    38   ar
    23    38    39    1
    24     1     4    1
    25     4     5    1
    26     4     6    1
    27     4     7    1
    28    15    16   ar
    29    16    17   ar
    30    17    18   ar
    31    18    21    1
    32    21    22   ar
    33    22    23   ar
    34    23    24   ar
    35    24    25    1
    36    24    26   ar
    37    26    27   ar
    38    18    14   ar
    39    27    21   ar
    40    38    32   ar
    41    13    19    1
    42    13    20    1
    43    11    12    1
    44     2     3    1
    45    42    43    1
@<TRIPOS>MOLECULE
*****
 43 45 0 0 0
SMALL
GASTEIGER

@<TRIPOS>ATOM
      1 C          63.7024   86.9191   15.7673 C.3     1  UNL1        0.2120
      2 O          64.5415   87.0957   14.5366 O.3     1  UNL1       -0.3763
      3 H          64.9617   87.9698   14.5544 H       1  UNL1        0.2107
      4 C          62.8634   86.7425   16.9980 C.3     1  UNL1        0.4226
      5 F          62.0242   86.5660   18.2289 F       1  UNL1       -0.1675
      6 F          62.6486   88.2256   17.0644 F       1  UNL1       -0.1675
      7 F          63.0781   85.2595   16.9316 F       1  UNL1       -0.1675
      8 C          63.4608   88.3987   15.8149 C.3     1  UNL1        0.1269
      9 C          64.3561   90.8012   15.3951 C.2     1  UNL1        0.2502
     10 O          63.4070   91.3352   16.4267 O.2     1  UNL1       -0.2700
     11 N          64.3830   89.3330   15.0893 N.am    1  UNL1       -0.2982
     12 H          65.0060   88.9826   14.4123 H       1  UNL1        0.1498
     13 N          64.2449   91.5199   12.2138 N.pl3   1  UNL1       -0.3424
     14 C          65.2272   92.0658   13.2071 C.ar    1  UNL1        0.1327
     15 C          65.2784   91.7355   14.6695 C.ar    1  UNL1        0.1053
     16 C          66.4137   92.5035   15.2787 C.ar    1  UNL1        0.1278
     17 N          67.0643   93.3085   14.1930 N.ar    1  UNL1       -0.1622
     18 N          66.3310   93.0380   12.9127 N.ar    1  UNL1       -0.2163
     19 H          63.5527   90.8832   12.5049 H       1  UNL1        0.1437
     20 H          64.2922   91.7983   11.2707 H       1  UNL1        0.1437
     21 C          66.6461   93.6349   11.5731 C.ar    1  UNL1        0.0843
     22 C          67.3474   92.8134   10.5323 C.ar    1  UNL1        0.0215
     23 C          67.6625   93.4102    9.1927 C.ar    1  UNL1        0.0312
     24 C          67.2762   94.8285    8.8939 C.ar    1  UNL1        0.1402
     25 F          67.5913   95.4252    7.5543 F       1  UNL1       -0.2042
     26 C          66.5749   95.6500    9.9347 C.ar    1  UNL1        0.0312
     27 C          66.2598   95.0532   11.2743 C.ar    1  UNL1        0.0215
     28 C          63.9441   85.4394   15.7197 C.3     1  UNL1        0.1308
     29 N          63.5020   84.6453   14.5264 N.am    1  UNL1       -0.2707
     30 C          64.0197   83.2529   14.3185 C.2     1  UNL1        0.2508
     31 O          64.9795   82.6546   15.3038 O.2     1  UNL1       -0.2698
     32 C          63.5776   82.4588   13.1252 C.ar    1  UNL1        0.0747
     33 C          62.4744   81.4517   13.2615 C.ar    1  UNL1        0.0628
     34 CL         61.8133   81.2386   14.5910 Cl      1  UNL1       -0.0821
     35 C          62.0322   80.6575   12.0682 C.ar    1  UNL1        0.0116
     36 C          62.6933   80.8705   10.7387 C.ar    1  UNL1        0.0017
     37 C          63.7966   81.8777   10.6025 C.ar    1  UNL1        0.0116
     38 C          64.2387   82.6718   11.7957 C.ar    1  UNL1        0.0628
     39 CL         65.3419   83.6789   11.6595 Cl      1  UNL1       -0.0821
     40 C          62.5422   85.2436   13.5411 C.3     1  UNL1        0.1255
     41 C          63.0603   85.9479   12.3223 C.3     1  UNL1        0.1586
     42 O          62.8159   87.4172   12.1445 O.3     1  UNL1       -0.3802
     43 H          61.8656   87.5756   12.0318 H       1  UNL1        0.2105
@<TRIPOS>BOND
     1    13    14    1
     2    14    15   ar
     3    15     9    1
     4     9    10    2
     5     9    11   am
     6    11     8    1
     7     8     1    1
     8     1     2    1
     9     1    28    1
    10    28    29    1
    11    29    40    1
    12    40    41    1
    13    41    42    1
    14    29    30   am
    15    30    31    2
    16    30    32    1
    17    32    33   ar
    18    33    34    1
    19    33    35   ar
    20    35    36   ar
    21    36    37   ar
    22    37    38   ar
    23    38    39    1
    24     1     4    1
    25     4     5    1
    26     4     6    1
    27     4     7    1
    28    15    16   ar
    29    16    17   ar
    30    17    18   ar
    31    18    21    1
    32    21    22   ar
    33    22    23   ar
    34    23    24   ar
    35    24    25    1
    36    24    26   ar
    37    26    27   ar
    38    18    14   ar
    39    27    21   ar
    40    38    32   ar
    41    13    19    1
    42    13    20    1
    43    11    12    1
    44     2     3    1
    45    42    43    1
@<TRIPOS>MOLECULE
*****
 43 45 0 0 0
SMALL
GASTEIGER

@<TRIPOS>ATOM
      1 C          63.7252   90.6236   14.2609 C.3     1  UNL1        0.2120
      2 O          63.8940   91.6877   15.3045 O.3     1  UNL1       -0.3763
      3 H          64.5138   91.3789   15.9838 H       1  UNL1        0.2107
      4 C          63.5564   89.5596   13.2172 C.3     1  UNL1        0.4226
      5 F          63.3875   88.4955   12.1735 F       1  UNL1       -0.1675
      6 F          62.0932   89.8784   13.1289 F       1  UNL1       -0.1675
      7 F          65.0194   89.2409   13.3055 F       1  UNL1       -0.1675
      8 C          63.9924   89.5687   15.2932 C.3     1  UNL1        0.1269
      9 C          63.5681   87.0363   15.6892 C.2     1  UNL1        0.2502
     10 O          62.7766   87.3616   16.9212 O.2     1  UNL1       -0.2700
     11 N          64.1761   88.1399   14.8753 N.am    1  UNL1       -0.2982
     12 H          64.6956   87.9264   14.0667 H       1  UNL1        0.1498
     13 N          62.7536   85.7640   12.7966 N.pl3   1  UNL1       -0.3424
     14 C          63.3773   85.0227   13.9417 C.ar    1  UNL1        0.1327
     15 C          63.7517   85.6075   15.2713 C.ar    1  UNL1        0.1053
     16 C          64.3420   84.5125   16.1096 C.ar    1  UNL1        0.1278
     17 N          64.3324   83.2510   15.2981 N.ar    1  UNL1       -0.1622
     18 N          63.7362   83.5663   13.9583 N.ar    1  UNL1       -0.2163
     19 H          62.5544   86.7243   12.8821 H       1  UNL1        0.1437
     20 H          62.5435   85.2902   11.9595 H       1  UNL1        0.1437
     21 C          63.5343   82.5956   12.8326 C.ar    1  UNL1        0.0843
     22 C          64.0146   82.9366   11.4531 C.ar    1  UNL1        0.0215
     23 C          63.8127   81.9660   10.3275 C.ar    1  UNL1        0.0312
     24 C          63.1305   80.6544   10.5814 C.ar    1  UNL1        0.1402
     25 F          62.9287   79.6838    9.4556 F       1  UNL1       -0.2042
     26 C          62.6503   80.3134   11.9609 C.ar    1  UNL1        0.0312
     27 C          62.8521   81.2841   13.0865 C.ar    1  UNL1        0.0215
     28 C          63.4579   91.6787   13.2286 C.3     1  UNL1        0.1308
     29 N          64.4452   91.9147   12.1243 N.am    1  UNL1       -0.2707
     30 C          65.6371   92.7946   12.3593 C.2     1  UNL1        0.2508
     31 O          65.8416   93.4385   13.6985 O.2     1  UNL1       -0.2698
     32 C          66.6245   93.0306   11.2550 C.ar    1  UNL1        0.0747
     33 C          66.3411   94.0619   10.2033 C.ar    1  UNL1        0.0628
     34 CL         65.0703   94.8572   10.2559 Cl      1  UNL1       -0.0821
     35 C          67.3284   94.2979    9.0990 C.ar    1  UNL1        0.0116
     36 C          68.5992   93.5027    9.0464 C.ar    1  UNL1        0.0017
     37 C          68.8826   92.4713   10.0982 C.ar    1  UNL1        0.0116
     38 C          67.8952   92.2353   11.2025 C.ar    1  UNL1        0.0628
     39 CL         68.1786   91.2040   12.2541 Cl      1  UNL1       -0.0821
     40 C          64.2407   91.2708   10.7851 C.3     1  UNL1        0.1255
     41 C          62.9766   91.5215   10.0175 C.3     1  UNL1        0.1586
     42 O          61.8810   90.4970   10.0216 O.3     1  UNL1       -0.3802
     43 H          62.1875   89.6941    9.5717 H       1  UNL1        0.2105
@<TRIPOS>BOND
     1    13    14    1
     2    14    15   ar
     3    15     9    1
     4     9    10    2
     5     9    11   am
     6    11     8    1
     7     8     1    1
     8     1     2    1
     9     1    28    1
    10    28    29    1
    11    29    40    1
    12    40    41    1
    13    41    42    1
    14    29    30   am
    15    30    31    2
    16    30    32    1
    17    32    33   ar
    18    33    34    1
    19    33    35   ar
    20    35    36   ar
    21    36    37   ar
    22    37    38   ar
    23    38    39    1
    24     1     4    1
    25     4     5    1
    26     4     6    1
    27     4     7    1
    28    15    16   ar
    29    16    17   ar
    30    17    18   ar
    31    18    21    1
    32    21    22   ar
    33    22    23   ar
    34    23    24   ar
    35    24    25    1
    36    24    26   ar
    37    26    27   ar
    38    18    14   ar
    39    27    21   ar
    40    38    32   ar
    41    13    19    1
    42    13    20    1
    43    11    12    1
    44     2     3    1
    45    42    43    1
@<TRIPOS>MOLECULE
*****
 43 45 0 0 0
SMALL
GASTEIGER

@<TRIPOS>ATOM
      1 C          59.6734   88.8742    8.3623 C.3     1  UNL1        0.2120
      2 O          60.1137   90.1720    8.9719 O.3     1  UNL1       -0.3763
      3 H          59.5780   90.8963    8.6123 H       1  UNL1        0.2107
      4 C          59.2332   87.5763    7.7527 C.3     1  UNL1        0.4226
      5 F          58.7930   86.2783    7.1431 F       1  UNL1       -0.1675
      6 F          60.4934   86.9218    8.2362 F       1  UNL1       -0.1675
      7 F          57.9731   88.2308    7.2692 F       1  UNL1       -0.1675
      8 C          59.2649   89.5990    7.1142 C.3     1  UNL1        0.1269
      9 C          59.9747   91.0946    5.1119 C.2     1  UNL1        0.2502
     10 O          58.6018   91.6978    5.0758 O.2     1  UNL1       -0.2700
     11 N          60.3063   90.0452    6.1311 N.am    1  UNL1       -0.2982
     12 H          61.2074   89.6493    6.1548 H       1  UNL1        0.1498
     13 N          59.5407   93.2576    2.7072 N.pl3   1  UNL1       -0.3424
     14 C          60.8165   92.5351    3.0235 C.ar    1  UNL1        0.1327
     15 C          61.0161   91.5408    4.1288 C.ar    1  UNL1        0.1053
     16 C          62.4398   91.0712    4.0784 C.ar    1  UNL1        0.1278
     17 N          63.1202   91.7752    2.9420 N.ar    1  UNL1       -0.1622
     18 N          62.1170   92.6799    2.2900 N.ar    1  UNL1       -0.2163
     19 H          58.7353   93.0946    3.2494 H       1  UNL1        0.1437
     20 H          59.5088   93.8949    1.9575 H       1  UNL1        0.1437
     21 C          62.3698   93.5727    1.1115 C.ar    1  UNL1        0.0843
     22 C          61.7738   93.2386   -0.2239 C.ar    1  UNL1        0.0215
     23 C          62.0266   94.1314   -1.4025 C.ar    1  UNL1        0.0312
     24 C          62.8753   95.3583   -1.2456 C.ar    1  UNL1        0.1402
     25 F          63.1280   96.2510   -2.4243 F       1  UNL1       -0.2042
     26 C          63.4712   95.6924    0.0897 C.ar    1  UNL1        0.0312
     27 C          63.2184   94.7996    1.2683 C.ar    1  UNL1        0.0215
     28 C          60.0820   88.1494    9.6105 C.3     1  UNL1        0.1308
     29 N          60.8835   88.8587   10.6614 N.am    1  UNL1       -0.2707
     30 C          62.3775   88.7260   10.6821 C.2     1  UNL1        0.2508
     31 O          63.0700   87.8840    9.6518 O.2     1  UNL1       -0.2698
     32 C          63.1790   89.4353   11.7330 C.ar    1  UNL1        0.0747
     33 C          63.5446   90.8785   11.5504 C.ar    1  UNL1        0.0628
     34 CL         63.1089   91.6124   10.3169 Cl      1  UNL1       -0.0821
     35 C          64.3462   91.5879   12.6013 C.ar    1  UNL1        0.0116
     36 C          64.7820   90.8541   13.8348 C.ar    1  UNL1        0.0017
     37 C          64.4162   89.4108   14.0174 C.ar    1  UNL1        0.0116
     38 C          63.6148   88.7014   12.9665 C.ar    1  UNL1        0.0628
     39 CL         63.2491   87.2582   13.1490 Cl      1  UNL1       -0.0821
     40 C          60.1910   89.7007   11.6916 C.3     1  UNL1        0.1255
     41 C          58.8465   89.2906   12.2152 C.3     1  UNL1        0.1586
     42 O          58.7458   88.4989   13.4852 O.3     1  UNL1       -0.3802
     43 H          59.1424   87.6236   13.3529 H       1  UNL1        0.2105
@<TRIPOS>BOND
     1    13    14    1
     2    14    15   ar
     3    15     9    1
     4     9    10    2
     5     9    11   am
     6    11     8    1
     7     8     1    1
     8     1     2    1
     9     1    28    1
    10    28    29    1
    11    29    40    1
    12    40    41    1
    13    41    42    1
    14    29    30   am
    15    30    31    2
    16    30    32    1
    17    32    33   ar
    18    33    34    1
    19    33    35   ar
    20    35    36   ar
    21    36    37   ar
    22    37    38   ar
    23    38    39    1
    24     1     4    1
    25     4     5    1
    26     4     6    1
    27     4     7    1
    28    15    16   ar
    29    16    17   ar
    30    17    18   ar
    31    18    21    1
    32    21    22   ar
    33    22    23   ar
    34    23    24   ar
    35    24    25    1
    36    24    26   ar
    37    26    27   ar
    38    18    14   ar
    39    27    21   ar
    40    38    32   ar
    41    13    19    1
    42    13    20    1
    43    11    12    1
    44     2     3    1
    45    42    43    1
@<TRIPOS>MOLECULE
*****
 43 45 0 0 0
SMALL
GASTEIGER

@<TRIPOS>ATOM
      1 C          60.9374   89.2326   10.3780 C.3     1  UNL1        0.2120
      2 O          62.1408   88.4913    9.8759 O.3     1  UNL1       -0.3763
      3 H          62.8606   89.1194    9.7077 H       1  UNL1        0.2107
      4 C          59.7340   89.9740   10.8802 C.3     1  UNL1        0.4226
      5 F          58.5306   90.7154   11.3824 F       1  UNL1       -0.1675
      6 F          59.8394   89.2558   12.1929 F       1  UNL1       -0.1675
      7 F          59.6287   90.6922    9.5675 F       1  UNL1       -0.1675
      8 C          61.3561   90.4421    9.5958 C.3     1  UNL1        0.1269
      9 C          63.2041   91.0937   11.3019 C.2     1  UNL1        0.2502
     10 O          62.4511   90.3845   12.3883 O.2     1  UNL1       -0.2700
     11 N          62.6566   91.1224    9.9057 N.am    1  UNL1       -0.2982
     12 H          63.1507   91.5879    9.1926 H       1  UNL1        0.1498
     13 N          64.7573   91.0471   14.1715 N.pl3   1  UNL1       -0.3424
     14 C          65.2184   91.7526   12.9308 C.ar    1  UNL1        0.1327
     15 C          64.5045   91.7740   11.6117 C.ar    1  UNL1        0.1053
     16 C          65.3193   92.5953   10.6569 C.ar    1  UNL1        0.1278
     17 N          66.5369   93.0814   11.3858 N.ar    1  UNL1       -0.1622
     18 N          66.4745   92.5606   12.7911 N.ar    1  UNL1       -0.2163
     19 H          63.9139   90.5392   14.1644 H       1  UNL1        0.1437
     20 H          65.2980   91.0918   14.9930 H       1  UNL1        0.1437
     21 C          67.4899   92.8049   13.8678 C.ar    1  UNL1        0.0843
     22 C          68.8040   92.0822   13.8374 C.ar    1  UNL1        0.0215
     23 C          69.8194   92.3265   14.9141 C.ar    1  UNL1        0.0312
     24 C          69.5207   93.2935   16.0212 C.ar    1  UNL1        0.1402
     25 F          70.5362   93.5377   17.0979 F       1  UNL1       -0.2042
     26 C          68.2066   94.0161   16.0517 C.ar    1  UNL1        0.0312
     27 C          67.1912   93.7718   14.9750 C.ar    1  UNL1        0.0215
     28 C          60.5187   88.0231   11.1603 C.3     1  UNL1        0.1308
     29 N          61.0629   86.6723   10.8011 N.am    1  UNL1       -0.2707
     30 C          62.2880   86.1495   11.4910 C.2     1  UNL1        0.2508
     31 O          62.9688   86.9777   12.5402 O.2     1  UNL1       -0.2698
     32 C          62.8323   84.7987   11.1318 C.ar    1  UNL1        0.0747
     33 C          62.8308   83.6952   12.1478 C.ar    1  UNL1        0.0628
     34 CL         62.2852   83.9426   13.5230 Cl      1  UNL1       -0.0821
     35 C          63.3751   82.3443   11.7887 C.ar    1  UNL1        0.0116
     36 C          63.9207   82.0970   10.4135 C.ar    1  UNL1        0.0017
     37 C          63.9221   83.2006    9.3975 C.ar    1  UNL1        0.0116
     38 C          63.3779   84.5514    9.7567 C.ar    1  UNL1        0.0628
     39 CL         63.3793   85.6549    8.7407 Cl      1  UNL1       -0.0821
     40 C          60.3822   85.8442    9.7519 C.3     1  UNL1        0.1255
     41 C          59.9759   86.4689    8.4501 C.3     1  UNL1        0.1586
     42 O          58.5224   86.6121    8.1083 O.3     1  UNL1       -0.3802
     43 H          58.1284   85.7329    7.9963 H       1  UNL1        0.2105
@<TRIPOS>BOND
     1    13    14    1
     2    14    15   ar
     3    15     9    1
     4     9    10    2
     5     9    11   am
     6    11     8    1
     7     8     1    1
     8     1     2    1
     9     1    28    1
    10    28    29    1
    11    29    40    1
    12    40    41    1
    13    41    42    1
    14    29    30   am
    15    30    31    2
    16    30    32    1
    17    32    33   ar
    18    33    34    1
    19    33    35   ar
    20    35    36   ar
    21    36    37   ar
    22    37    38   ar
    23    38    39    1
    24     1     4    1
    25     4     5    1
    26     4     6    1
    27     4     7    1
    28    15    16   ar
    29    16    17   ar
    30    17    18   ar
    31    18    21    1
    32    21    22   ar
    33    22    23   ar
    34    23    24   ar
    35    24    25    1
    36    24    26   ar
    37    26    27   ar
    38    18    14   ar
    39    27    21   ar
    40    38    32   ar
    41    13    19    1
    42    13    20    1
    43    11    12    1
    44     2     3    1
    45    42    43    1
