@<TRIPOS>MOLECULE
*****
 39 42 0 0 0
SMALL
GASTEIGER

@<TRIPOS>ATOM
      1 C          61.9982   82.0934   11.2262 C.3     1  UNL1        0.0326
      2 C          62.3810   82.3896   12.6460 C.ar    1  UNL1       -0.0045
      3 C          62.3588   81.2961   13.6725 C.ar    1  UNL1       -0.0027
      4 C          62.7416   81.5923   15.0923 C.ar    1  UNL1        0.0013
      5 C          63.1467   82.9819   15.4855 C.ar    1  UNL1        0.0206
      6 C          63.1690   84.0754   14.4590 C.ar    1  UNL1        0.0996
      7 N          63.5220   85.5304   14.5500 N.ar    1  UNL1       -0.2135
      8 C          63.3573   86.1336   13.1865 C.ar    1  UNL1        0.2039
      9 N          62.9026   85.0512   12.2528 N.ar    1  UNL1       -0.2999
     10 C          62.7862   83.7792   13.0393 C.ar    1  UNL1        0.0758
     11 C          62.6147   85.2126   10.7896 C.3     1  UNL1        0.1078
     12 C          63.4820   84.4123    9.8635 C.3     1  UNL1        0.0245
     13 C          63.4464   84.3547    8.3651 C.3     1  UNL1        0.0037
     14 C          62.5348   85.0830    7.4225 C.3     1  UNL1        0.0216
     15 C          61.4336   86.0488    7.7456 C.3     1  UNL1        0.0938
     16 N          60.9720   86.5250    9.0911 N.am    1  UNL1       -0.2742
     17 C          59.8343   87.5025    9.0805 C.2     1  UNL1        0.2489
     18 O          59.2963   88.0412   10.3729 O.2     1  UNL1       -0.2699
     19 C          61.4977   86.1527   10.4457 C.3     1  UNL1        0.1162
     20 C          59.2347   87.9413    7.7775 C.2     1  UNL1        0.0548
     21 C          59.5320   89.3090    7.2379 C.2     1  UNL1       -0.0041
     22 C          58.9324   89.7479    5.9349 C.3     1  UNL1        0.0991
     23 N          59.4709   90.9582    5.2313 N.3     1  UNL1       -0.2665
     24 C          60.9345   91.0540    4.9174 C.3     1  UNL1        0.0899
     25 C          58.5457   92.0727    4.8417 C.3     1  UNL1        0.0899
     26 N          63.6041   87.5672   12.8209 N.am    1  UNL1       -0.2518
     27 C          64.2116   88.5030   13.8235 C.2     1  UNL1        0.2517
     28 O          64.5723   88.0052   15.1917 O.2     1  UNL1       -0.2697
     29 H          63.3674   87.8940   11.9229 H       1  UNL1        0.1580
     30 C          64.4583   89.9367   13.4578 C.ar    1  UNL1        0.0567
     31 C          63.7515   90.5432   12.2819 C.ar    1  UNL1        0.0252
     32 C          63.9983   91.9769   11.9163 C.ar    1  UNL1        0.0989
     33 N          64.9519   92.8041   12.7266 N.ar    1  UNL1       -0.2399
     34 C          65.6586   92.1976   13.9024 C.ar    1  UNL1        0.1528
     35 C          65.4119   90.7639   14.2681 C.ar    1  UNL1        0.0276
     36 C          66.6122   93.0248   14.7126 C.3     1  UNL1        0.4348
     37 F          67.5658   93.8521   15.5229 F       1  UNL1       -0.1644
     38 F          66.8397   91.8618   15.6323 F       1  UNL1       -0.1644
     39 F          66.3847   94.1877   13.7930 F       1  UNL1       -0.1644
@<TRIPOS>BOND
     1     1     2    1
     2     2     3   ar
     3     3     4   ar
     4     4     5   ar
     5     5     6   ar
     6     6     7   ar
     7     7     8   ar
     8     8    26    1
     9    26    27   am
    10    27    28    2
    11    27    30    1
    12    30    31   ar
    13    31    32   ar
    14    32    33   ar
    15    33    34   ar
    16    34    36    1
    17    36    37    1
    18    36    38    1
    19    36    39    1
    20    34    35   ar
    21     8     9   ar
    22    11     9    1
    23    11    12    1
    24    12    13    1
    25    13    14    1
    26    14    15    1
    27    15    16    1
    28    16    17   am
    29    17    18    2
    30    17    20    1
    31    20    21    2
    32    21    22    1
    33    22    23    1
    34    23    24    1
    35    23    25    1
    36    16    19    1
    37     9    10   ar
    38    10     2   ar
    39    10     6   ar
    40    35    30   ar
    41    19    11    1
    42    26    29    1
@<TRIPOS>MOLECULE
*****
 39 42 0 0 0
SMALL
GASTEIGER

@<TRIPOS>ATOM
      1 C          63.2325   90.1791   10.7270 C.3     1  UNL1        0.0326
      2 C          63.6950   89.9867   12.1408 C.ar    1  UNL1       -0.0045
      3 C          64.3134   91.1297   12.8898 C.ar    1  UNL1       -0.0027
      4 C          64.7759   90.9373   14.3037 C.ar    1  UNL1        0.0013
      5 C          64.6200   89.6018   14.9686 C.ar    1  UNL1        0.0206
      6 C          64.0016   88.4588   14.2196 C.ar    1  UNL1        0.0996
      7 N          63.7193   87.0383   14.6104 N.ar    1  UNL1       -0.2135
      8 C          63.0823   86.3529   13.4380 C.ar    1  UNL1        0.2039
      9 N          62.9710   87.3497   12.3227 N.ar    1  UNL1       -0.2999
     10 C          63.5391   88.6512   12.8058 C.ar    1  UNL1        0.0758
     11 C          62.3929   87.0905   10.9630 C.3     1  UNL1        0.1078
     12 C          62.8309   85.8174   10.3015 C.3     1  UNL1        0.0245
     13 C          62.4375   85.2781    8.9583 C.3     1  UNL1        0.0037
     14 C          61.5090   85.8786    7.9447 C.3     1  UNL1        0.0216
     15 C          60.7446   87.1667    8.0241 C.3     1  UNL1        0.0938
     16 N          60.7198   88.1726    9.1367 N.am    1  UNL1       -0.2742
     17 C          59.8459   89.3707    8.9116 C.2     1  UNL1        0.2489
     18 O          59.7497   90.4369    9.9623 O.2     1  UNL1       -0.2699
     19 C          61.4534   88.1386   10.4446 C.3     1  UNL1        0.1162
     20 C          59.0683   89.5027    7.6357 C.2     1  UNL1        0.0548
     21 C          59.7041   90.1320    6.4316 C.2     1  UNL1       -0.0041
     22 C          58.9266   90.2640    5.1557 C.3     1  UNL1        0.0991
     23 N          58.3550   91.5930    4.7597 N.3     1  UNL1       -0.2665
     24 C          56.8723   91.8153    4.8045 C.3     1  UNL1        0.0899
     25 C          59.2663   92.6999    4.3187 C.3     1  UNL1        0.0899
     26 N          62.6352   84.9219   13.3895 N.am    1  UNL1       -0.2518
     27 C          63.6394   83.8294   13.1699 C.2     1  UNL1        0.2517
     28 O          65.0907   84.1680   12.9987 O.2     1  UNL1       -0.2697
     29 H          61.6827   84.6996   13.5018 H       1  UNL1        0.1580
     30 C          63.1923   82.3984   13.1214 C.ar    1  UNL1        0.0567
     31 C          62.6698   81.7335   14.3603 C.ar    1  UNL1        0.0252
     32 C          62.2227   80.3025   14.3118 C.ar    1  UNL1        0.0989
     33 N          62.2981   79.5364   13.0243 N.ar    1  UNL1       -0.2399
     34 C          62.8207   80.2013   11.7855 C.ar    1  UNL1        0.1528
     35 C          63.2677   81.6323   11.8340 C.ar    1  UNL1        0.0276
     36 C          62.8961   79.4353   10.4981 C.3     1  UNL1        0.4348
     37 F          62.9716   78.6692    9.2106 F       1  UNL1       -0.1644
     38 F          62.7025   78.1521   11.2503 F       1  UNL1       -0.1644
     39 F          63.0897   80.7184    9.7458 F       1  UNL1       -0.1644
@<TRIPOS>BOND
     1     1     2    1
     2     2     3   ar
     3     3     4   ar
     4     4     5   ar
     5     5     6   ar
     6     6     7   ar
     7     7     8   ar
     8     8    26    1
     9    26    27   am
    10    27    28    2
    11    27    30    1
    12    30    31   ar
    13    31    32   ar
    14    32    33   ar
    15    33    34   ar
    16    34    36    1
    17    36    37    1
    18    36    38    1
    19    36    39    1
    20    34    35   ar
    21     8     9   ar
    22    11     9    1
    23    11    12    1
    24    12    13    1
    25    13    14    1
    26    14    15    1
    27    15    16    1
    28    16    17   am
    29    17    18    2
    30    17    20    1
    31    20    21    2
    32    21    22    1
    33    22    23    1
    34    23    24    1
    35    23    25    1
    36    16    19    1
    37     9    10   ar
    38    10     2   ar
    39    10     6   ar
    40    35    30   ar
    41    19    11    1
    42    26    29    1
@<TRIPOS>MOLECULE
*****
 39 42 0 0 0
SMALL
GASTEIGER

@<TRIPOS>ATOM
      1 C          65.5835   91.4402   16.2183 C.3     1  UNL1        0.0326
      2 C          65.7178   92.1750   14.9175 C.ar    1  UNL1       -0.0045
      3 C          66.4700   93.4715   14.8628 C.ar    1  UNL1       -0.0027
      4 C          66.6043   94.2064   13.5620 C.ar    1  UNL1        0.0013
      5 C          65.9864   93.6447   12.3160 C.ar    1  UNL1        0.0206
      6 C          65.2341   92.3481   12.3707 C.ar    1  UNL1        0.0996
      7 N          64.5232   91.5548   11.3147 N.ar    1  UNL1       -0.2135
      8 C          63.9496   90.3297   11.9627 C.ar    1  UNL1        0.2039
      9 N          64.3059   90.3658   13.4193 N.ar    1  UNL1       -0.2999
     10 C          65.0998   91.6133   13.6715 C.ar    1  UNL1        0.0758
     11 C          63.9338   89.3354   14.4439 C.3     1  UNL1        0.1078
     12 C          63.5637   89.8670   15.7969 C.3     1  UNL1        0.0245
     13 C          63.1493   89.1042   17.0201 C.3     1  UNL1        0.0037
     14 C          63.0027   87.6213   17.1926 C.3     1  UNL1        0.0216
     15 C          63.2342   86.5352   16.1843 C.3     1  UNL1        0.0938
     16 N          63.6696   86.6634   14.7546 N.am    1  UNL1       -0.2742
     17 C          63.8125   85.3752   13.9996 C.2     1  UNL1        0.2489
     18 O          64.2428   85.3918   12.5628 O.2     1  UNL1       -0.2699
     19 C          63.9809   87.9098   13.9801 C.3     1  UNL1        0.1162
     20 C          63.5251   84.0705   14.6816 C.2     1  UNL1        0.0548
     21 C          62.5002   83.1357   14.1107 C.2     1  UNL1       -0.0041
     22 C          62.2128   81.8309   14.7926 C.3     1  UNL1        0.0991
     23 N          61.5748   80.7094   14.0276 N.3     1  UNL1       -0.2665
     24 C          62.3990   79.8751   13.0925 C.3     1  UNL1        0.0899
     25 C          60.1124   80.4222   14.1980 C.3     1  UNL1        0.0899
     26 N          63.1585   89.2568   11.2749 N.am    1  UNL1       -0.2518
     27 C          62.0906   89.6277   10.2890 C.2     1  UNL1        0.2517
     28 O          61.8138   91.0715    9.9908 O.2     1  UNL1       -0.2697
     29 H          63.3401   88.3092   11.4706 H       1  UNL1        0.1580
     30 C          61.2995   88.5548    9.6012 C.ar    1  UNL1        0.0567
     31 C          59.8003   88.6028    9.6150 C.ar    1  UNL1        0.0252
     32 C          59.0092   87.5299    8.9272 C.ar    1  UNL1        0.0989
     33 N          59.7173   86.4090    8.2256 N.ar    1  UNL1       -0.2399
     34 C          61.2164   86.3610    8.2118 C.ar    1  UNL1        0.1528
     35 C          62.0075   87.4339    8.8996 C.ar    1  UNL1        0.0276
     36 C          61.9245   85.2401    7.5103 C.3     1  UNL1        0.4348
     37 F          62.6325   84.1191    6.8086 F       1  UNL1       -0.1644
     38 F          63.1834   85.5679    8.2570 F       1  UNL1       -0.1644
     39 F          60.6655   84.9123    6.7636 F       1  UNL1       -0.1644
@<TRIPOS>BOND
     1     1     2    1
     2     2     3   ar
     3     3     4   ar
     4     4     5   ar
     5     5     6   ar
     6     6     7   ar
     7     7     8   ar
     8     8    26    1
     9    26    27   am
    10    27    28    2
    11    27    30    1
    12    30    31   ar
    13    31    32   ar
    14    32    33   ar
    15    33    34   ar
    16    34    36    1
    17    36    37    1
    18    36    38    1
    19    36    39    1
    20    34    35   ar
    21     8     9   ar
    22    11     9    1
    23    11    12    1
    24    12    13    1
    25    13    14    1
    26    14    15    1
    27    15    16    1
    28    16    17   am
    29    17    18    2
    30    17    20    1
    31    20    21    2
    32    21    22    1
    33    22    23    1
    34    23    24    1
    35    23    25    1
    36    16    19    1
    37     9    10   ar
    38    10     2   ar
    39    10     6   ar
    40    35    30   ar
    41    19    11    1
    42    26    29    1
@<TRIPOS>MOLECULE
*****
 39 42 0 0 0
SMALL
GASTEIGER

@<TRIPOS>ATOM
      1 C          62.8008   90.1383   10.9183 C.3     1  UNL1        0.0326
      2 C          63.3783   89.9801   12.2937 C.ar    1  UNL1       -0.0045
      3 C          63.7778   91.1913   13.0832 C.ar    1  UNL1       -0.0027
      4 C          64.3553   91.0331   14.4585 C.ar    1  UNL1        0.0013
      5 C          64.5332   89.6638   15.0443 C.ar    1  UNL1        0.0206
      6 C          64.1337   88.4526   14.2548 C.ar    1  UNL1        0.0996
      7 N          64.1904   86.9867   14.5679 N.ar    1  UNL1       -0.2135
      8 C          63.6480   86.2389   13.3861 C.ar    1  UNL1        0.2039
      9 N          63.2561   87.2427   12.3426 N.ar    1  UNL1       -0.2999
     10 C          63.5562   88.6108   12.8794 C.ar    1  UNL1        0.0758
     11 C          62.6674   86.9327   10.9982 C.3     1  UNL1        0.1078
     12 C          63.1672   85.6798   10.3420 C.3     1  UNL1        0.0245
     13 C          62.7798   85.1015    9.0134 C.3     1  UNL1        0.0037
     14 C          61.7969   85.6330    8.0126 C.3     1  UNL1        0.0216
     15 C          60.9586   86.8743    8.0935 C.3     1  UNL1        0.0938
     16 N          60.8962   87.8906    9.1950 N.am    1  UNL1       -0.2742
     17 C          59.9480   89.0319    8.9748 C.2     1  UNL1        0.2489
     18 O          59.8095   90.1034   10.0153 O.2     1  UNL1       -0.2699
     19 C          61.6568   87.9165   10.4877 C.3     1  UNL1        0.1162
     20 C          59.1385   89.1015    7.7140 C.2     1  UNL1        0.0548
     21 C          59.5348   90.0476    6.6194 C.2     1  UNL1       -0.0041
     22 C          58.7253   90.1173    5.3586 C.3     1  UNL1        0.0991
     23 N          58.2537   91.4443    4.8424 N.3     1  UNL1       -0.2665
     24 C          59.2472   92.4512    4.3434 C.3     1  UNL1        0.0899
     25 C          56.7883   91.7645    4.8253 C.3     1  UNL1        0.0899
     26 N          63.5201   84.7490   13.2684 N.am    1  UNL1       -0.2518
     27 C          62.5565   84.0074   14.1466 C.2     1  UNL1        0.2517
     28 O          61.7207   84.7556   15.1425 O.2     1  UNL1       -0.2697
     29 H          64.0686   84.2580   12.6148 H       1  UNL1        0.1580
     30 C          62.4285   82.5175   14.0290 C.ar    1  UNL1        0.0567
     31 C          63.6398   81.6812   13.7399 C.ar    1  UNL1        0.0252
     32 C          63.5119   80.1913   13.6222 C.ar    1  UNL1        0.0989
     33 N          62.1726   79.5377   13.7937 N.ar    1  UNL1       -0.2399
     34 C          60.9614   80.3739   14.0827 C.ar    1  UNL1        0.1528
     35 C          61.0894   81.8638   14.2004 C.ar    1  UNL1        0.0276
     36 C          59.6223   79.7203   14.2542 C.3     1  UNL1        0.4348
     37 F          58.2831   79.0667   14.4256 F       1  UNL1       -0.1644
     38 F          60.2757   78.3708   14.2123 F       1  UNL1       -0.1644
     39 F          58.9690   81.0699   14.2960 F       1  UNL1       -0.1644
@<TRIPOS>BOND
     1     1     2    1
     2     2     3   ar
     3     3     4   ar
     4     4     5   ar
     5     5     6   ar
     6     6     7   ar
     7     7     8   ar
     8     8    26    1
     9    26    27   am
    10    27    28    2
    11    27    30    1
    12    30    31   ar
    13    31    32   ar
    14    32    33   ar
    15    33    34   ar
    16    34    36    1
    17    36    37    1
    18    36    38    1
    19    36    39    1
    20    34    35   ar
    21     8     9   ar
    22    11     9    1
    23    11    12    1
    24    12    13    1
    25    13    14    1
    26    14    15    1
    27    15    16    1
    28    16    17   am
    29    17    18    2
    30    17    20    1
    31    20    21    2
    32    21    22    1
    33    22    23    1
    34    23    24    1
    35    23    25    1
    36    16    19    1
    37     9    10   ar
    38    10     2   ar
    39    10     6   ar
    40    35    30   ar
    41    19    11    1
    42    26    29    1
@<TRIPOS>MOLECULE
*****
 39 42 0 0 0
SMALL
GASTEIGER

@<TRIPOS>ATOM
      1 C          62.3527   81.7432   10.6202 C.3     1  UNL1        0.0326
      2 C          62.7667   81.6234   12.0569 C.ar    1  UNL1       -0.0045
      3 C          62.8226   80.2749   12.7114 C.ar    1  UNL1       -0.0027
      4 C          63.2366   80.1551   14.1482 C.ar    1  UNL1        0.0013
      5 C          63.5946   81.3838   14.9305 C.ar    1  UNL1        0.0206
      6 C          63.5387   82.7323   14.2760 C.ar    1  UNL1        0.0996
      7 N          63.8326   84.1105   14.7901 N.ar    1  UNL1       -0.2135
      8 C          63.6002   85.0821   13.6712 C.ar    1  UNL1        0.2039
      9 N          63.1628   84.3043   12.4654 N.ar    1  UNL1       -0.2999
     10 C          63.1248   82.8521   12.8392 C.ar    1  UNL1        0.0758
     11 C          62.8230   84.8780   11.1218 C.3     1  UNL1        0.1078
     12 C          63.5596   84.2868    9.9564 C.3     1  UNL1        0.0245
     13 C          63.4466   84.6386    8.5027 C.3     1  UNL1        0.0037
     14 C          62.5692   85.6685    7.8551 C.3     1  UNL1        0.0216
     15 C          61.5880   86.6010    8.5014 C.3     1  UNL1        0.0938
     16 N          61.2419   86.7340    9.9549 N.am    1  UNL1       -0.2742
     17 C          60.2097   87.7707   10.2860 C.2     1  UNL1        0.2489
     18 O          59.7914   87.9844   11.7106 O.2     1  UNL1       -0.2699
     19 C          61.7916   85.9671   11.1210 C.3     1  UNL1        0.1162
     20 C          59.5959   88.5938    9.1925 C.2     1  UNL1        0.0548
     21 C          59.0871   87.9280    7.9483 C.2     1  UNL1       -0.0041
     22 C          58.4732   88.7510    6.8547 C.3     1  UNL1        0.0991
     23 N          59.2294   89.9079    6.2720 N.3     1  UNL1       -0.2665
     24 C          58.5000   90.9711    5.5055 C.3     1  UNL1        0.0899
     25 C          60.7151   90.0016    6.4558 C.3     1  UNL1        0.0899
     26 N          63.7747   86.5700   13.7449 N.am    1  UNL1       -0.2518
     27 C          63.7236   87.2662   15.0726 C.2     1  UNL1        0.2517
     28 O          63.4981   86.4745   16.3265 O.2     1  UNL1       -0.2697
     29 H          63.9227   87.0897   12.9220 H       1  UNL1        0.1580
     30 C          63.8981   88.7542   15.1464 C.ar    1  UNL1        0.0567
     31 C          63.4282   89.5054   16.3568 C.ar    1  UNL1        0.0252
     32 C          63.6027   90.9933   16.4306 C.ar    1  UNL1        0.0989
     33 N          64.2470   91.7302   15.2940 N.ar    1  UNL1       -0.2399
     34 C          64.7168   90.9791   14.0836 C.ar    1  UNL1        0.1528
     35 C          64.5424   89.4911   14.0098 C.ar    1  UNL1        0.0276
     36 C          65.3611   91.7160   12.9470 C.3     1  UNL1        0.4348
     37 F          66.0054   92.4529   11.8104 F       1  UNL1       -0.1644
     38 F          66.6966   91.5810   13.6166 F       1  UNL1       -0.1644
     39 F          64.0257   91.8509   12.2775 F       1  UNL1       -0.1644
@<TRIPOS>BOND
     1     1     2    1
     2     2     3   ar
     3     3     4   ar
     4     4     5   ar
     5     5     6   ar
     6     6     7   ar
     7     7     8   ar
     8     8    26    1
     9    26    27   am
    10    27    28    2
    11    27    30    1
    12    30    31   ar
    13    31    32   ar
    14    32    33   ar
    15    33    34   ar
    16    34    36    1
    17    36    37    1
    18    36    38    1
    19    36    39    1
    20    34    35   ar
    21     8     9   ar
    22    11     9    1
    23    11    12    1
    24    12    13    1
    25    13    14    1
    26    14    15    1
    27    15    16    1
    28    16    17   am
    29    17    18    2
    30    17    20    1
    31    20    21    2
    32    21    22    1
    33    22    23    1
    34    23    24    1
    35    23    25    1
    36    16    19    1
    37     9    10   ar
    38    10     2   ar
    39    10     6   ar
    40    35    30   ar
    41    19    11    1
    42    26    29    1
@<TRIPOS>MOLECULE
*****
 39 42 0 0 0
SMALL
GASTEIGER

@<TRIPOS>ATOM
      1 C          65.9866   91.3938   16.5196 C.3     1  UNL1        0.0326
      2 C          66.1208   92.2040   15.2644 C.ar    1  UNL1       -0.0045
      3 C          66.9989   93.4199   15.2468 C.ar    1  UNL1       -0.0027
      4 C          67.1331   94.2301   13.9916 C.ar    1  UNL1        0.0013
      5 C          66.3891   93.8244   12.7540 C.ar    1  UNL1        0.0206
      6 C          65.5110   92.6085   12.7715 C.ar    1  UNL1        0.0996
      7 N          64.6617   91.9684   11.7137 N.ar    1  UNL1       -0.2135
      8 C          64.0027   90.7626   12.3150 C.ar    1  UNL1        0.2039
      9 N          64.4446   90.6575   13.7446 N.ar    1  UNL1       -0.2999
     10 C          65.3768   91.7983   14.0267 C.ar    1  UNL1        0.0758
     11 C          64.0276   89.5976   14.7207 C.3     1  UNL1        0.1078
     12 C          63.5957   90.0895   16.0704 C.3     1  UNL1        0.0245
     13 C          63.1272   89.2913   17.2507 C.3     1  UNL1        0.0037
     14 C          62.9748   87.8040   17.3731 C.3     1  UNL1        0.0216
     15 C          63.2534   86.7477   16.3451 C.3     1  UNL1        0.0938
     16 N          63.7531   86.9177   14.9411 N.am    1  UNL1       -0.2742
     17 C          63.9319   85.6521   14.1561 C.2     1  UNL1        0.2489
     18 O          64.4270   85.7106   12.7414 O.2     1  UNL1       -0.2699
     19 C          64.0976   88.1861   14.2182 C.3     1  UNL1        0.1162
     20 C          63.6155   84.3280   14.7859 C.2     1  UNL1        0.0548
     21 C          62.4914   83.4919   14.2497 C.2     1  UNL1       -0.0041
     22 C          62.1750   82.1678   14.8794 C.3     1  UNL1        0.0991
     23 N          61.6758   81.0347   14.0327 N.3     1  UNL1       -0.2665
     24 C          62.5988   80.3613   13.0609 C.3     1  UNL1        0.0899
     25 C          60.2535   80.5750   14.1580 C.3     1  UNL1        0.0899
     26 N          63.0661   89.8264   11.6106 N.am    1  UNL1       -0.2518
     27 C          62.4688   90.2153   10.2908 C.2     1  UNL1        0.2517
     28 O          62.8081   91.5406    9.6754 O.2     1  UNL1       -0.2697
     29 H          62.8434   88.9566   12.0145 H       1  UNL1        0.1580
     30 C          61.5322   89.2790    9.5863 C.ar    1  UNL1        0.0567
     31 C          61.4103   87.8555   10.0434 C.ar    1  UNL1        0.0252
     32 C          60.4737   86.9193    9.3389 C.ar    1  UNL1        0.0989
     33 N          59.6591   87.4065    8.1774 N.ar    1  UNL1       -0.2399
     34 C          59.7811   88.8300    7.7204 C.ar    1  UNL1        0.1528
     35 C          60.7176   89.7662    8.4249 C.ar    1  UNL1        0.0276
     36 C          58.9665   89.3171    6.5589 C.3     1  UNL1        0.4348
     37 F          58.1518   89.8043    5.3974 F       1  UNL1       -0.1644
     38 F          60.1537   90.0759    6.0445 F       1  UNL1       -0.1644
     39 F          57.7792   88.5584    7.0734 F       1  UNL1       -0.1644
@<TRIPOS>BOND
     1     1     2    1
     2     2     3   ar
     3     3     4   ar
     4     4     5   ar
     5     5     6   ar
     6     6     7   ar
     7     7     8   ar
     8     8    26    1
     9    26    27   am
    10    27    28    2
    11    27    30    1
    12    30    31   ar
    13    31    32   ar
    14    32    33   ar
    15    33    34   ar
    16    34    36    1
    17    36    37    1
    18    36    38    1
    19    36    39    1
    20    34    35   ar
    21     8     9   ar
    22    11     9    1
    23    11    12    1
    24    12    13    1
    25    13    14    1
    26    14    15    1
    27    15    16    1
    28    16    17   am
    29    17    18    2
    30    17    20    1
    31    20    21    2
    32    21    22    1
    33    22    23    1
    34    23    24    1
    35    23    25    1
    36    16    19    1
    37     9    10   ar
    38    10     2   ar
    39    10     6   ar
    40    35    30   ar
    41    19    11    1
    42    26    29    1
