@<TRIPOS>MOLECULE
*****
 37 40 0 0 0
SMALL
GASTEIGER

@<TRIPOS>ATOM
      1 C          63.6424   89.5145   12.4663 C.3     1  UNL1        0.1174
      2 C          63.5078   88.0797   12.8824 C.ar    1  UNL1        0.0961
      3 N          62.7492   86.8099   12.6330 N.ar    1  UNL1       -0.1681
      4 N          63.2899   85.7581   13.5557 N.ar    1  UNL1       -0.2287
      5 C          64.3827   86.3778   14.3753 C.ar    1  UNL1        0.0990
      6 C          64.5173   87.8127   13.9592 C.ar    1  UNL1        0.0337
      7 C          65.2759   89.0824   14.2086 C.3     1  UNL1        0.1235
      8 N          64.7352   90.1343   13.2859 N.pl3   1  UNL1       -0.2703
      9 C          62.8203   84.3362   13.6434 C.ar    1  UNL1        0.0841
     10 C          62.0887   83.8619   14.8639 C.ar    1  UNL1        0.0190
     11 C          61.6192   82.4399   14.9515 C.ar    1  UNL1        0.0010
     12 C          61.8811   81.4924   13.8186 C.ar    1  UNL1        0.0242
     13 C          62.6127   81.9667   12.5980 C.ar    1  UNL1        0.1056
     14 C          63.0823   83.3887   12.5105 C.ar    1  UNL1        0.0372
     15 S          62.8747   81.0192   11.4651 S.O2    1  UNL1        0.0103
     16 C          63.1367   80.0717   10.3322 C.3     1  UNL1        0.1816
     17 O          62.6623   79.8564   12.3886 O.2     1  UNL1       -0.1686
     18 O          63.0871   82.1820   10.5416 O.2     1  UNL1       -0.1686
     19 C          61.4115   80.0705   13.9063 C.3     1  UNL1        0.1649
     20 O          59.9676   79.7732   14.1829 O.3     1  UNL1       -0.3772
     21 H          59.7409   80.0744   15.0767 H       1  UNL1        0.2109
     22 C          65.2048   91.5561   13.1983 C.ar    1  UNL1        0.2206
     23 N          65.3684   92.3703   14.4475 N.ar    1  UNL1       -0.2123
     24 C          65.8380   93.7921   14.3598 C.ar    1  UNL1        0.1014
     25 C          66.1440   94.3999   13.0230 C.ar    1  UNL1        0.0479
     26 C          65.9804   93.5858   11.7738 C.ar    1  UNL1        0.1553
     27 N          65.5108   92.1639   11.8615 N.ar    1  UNL1       -0.2099
     28 C          66.2864   94.1936   10.4370 C.3     1  UNL1        0.4348
     29 F          66.5925   94.8013    9.1003 F       1  UNL1       -0.1644
     30 F          67.6250   93.5165   10.4358 F       1  UNL1       -0.1644
     31 F          64.9479   94.8705   10.4384 F       1  UNL1       -0.1644
     32 C          66.6137   95.8218   12.9353 C.3     1  UNL1        0.1666
     33 O          65.7541   96.8560   12.2708 O.3     1  UNL1       -0.3771
     34 H          65.6756   96.6524   11.3257 H       1  UNL1        0.2109
     35 C          63.5067   90.8510   10.2426 C.3     1  UNL1        0.0021
     36 C          62.8274   90.2079   11.4151 C.3     1  UNL1        0.0241
     37 C          61.3332   90.2581   11.5365 C.3     1  UNL1        0.0021
@<TRIPOS>BOND
     1    35    36    1
     2    36    37    1
     3     1    36    1
     4     1     2    1
     5     2     3   ar
     6     3     4   ar
     7     4     9    1
     8     9    10   ar
     9    10    11   ar
    10    11    12   ar
    11    12    19    1
    12    19    20    1
    13    12    13   ar
    14    13    15    1
    15    15    16    1
    16    15    17    2
    17    15    18    2
    18    13    14   ar
    19     4     5   ar
    20     5     6   ar
    21     6     7    1
    22     7     8    1
    23     8    22    1
    24    22    23   ar
    25    23    24   ar
    26    24    25   ar
    27    25    32    1
    28    32    33    1
    29    25    26   ar
    30    26    28    1
    31    28    29    1
    32    28    30    1
    33    28    31    1
    34    26    27   ar
    35     8     1    1
    36    27    22   ar
    37     6     2   ar
    38    14     9   ar
    39    20    21    1
    40    33    34    1
@<TRIPOS>MOLECULE
*****
 37 40 0 0 0
SMALL
GASTEIGER

@<TRIPOS>ATOM
      1 C          44.5236   79.5570   15.8723 C.3     1  UNL1        0.1174
      2 C          44.3312   79.5729   14.3848 C.ar    1  UNL1        0.0961
      3 N          44.4505   80.4231   13.1548 N.ar    1  UNL1       -0.1681
      4 N          44.0199   79.5986   11.9780 N.ar    1  UNL1       -0.2287
      5 C          43.6344   78.2390   12.4807 C.ar    1  UNL1        0.0990
      6 C          43.8268   78.2231   13.9682 C.ar    1  UNL1        0.0337
      7 C          43.7075   77.3729   15.1982 C.3     1  UNL1        0.1235
      8 N          44.1381   78.1973   16.3751 N.pl3   1  UNL1       -0.2703
      9 C          43.9815   80.0539   10.5493 C.ar    1  UNL1        0.0841
     10 C          43.7069   81.4931   10.2278 C.ar    1  UNL1        0.0190
     11 C          43.6685   81.9483    8.7990 C.ar    1  UNL1        0.0010
     12 C          43.9046   80.9644    7.6917 C.ar    1  UNL1        0.0242
     13 C          44.1792   79.5252    8.0132 C.ar    1  UNL1        0.1056
     14 C          44.2176   79.0700    9.4420 C.ar    1  UNL1        0.0372
     15 S          44.4154   78.5413    6.9059 S.O2    1  UNL1        0.0103
     16 C          44.6516   77.5574    5.7987 C.3     1  UNL1        0.1816
     17 O          44.9630   79.6412    6.0454 O.2     1  UNL1       -0.1686
     18 O          43.8677   77.4414    7.7664 O.2     1  UNL1       -0.1686
     19 C          43.8662   81.4197    6.2630 C.3     1  UNL1        0.1649
     20 O          44.2883   82.8148    5.9088 O.3     1  UNL1       -0.3772
     21 H          43.6665   83.4494    6.2982 H       1  UNL1        0.2109
     22 C          44.1765   77.7420   17.8038 C.ar    1  UNL1        0.2206
     23 N          43.6418   76.3906   18.1749 N.ar    1  UNL1       -0.2123
     24 C          43.6802   75.9353   19.6036 C.ar    1  UNL1        0.1014
     25 C          44.2533   76.8314   20.6612 C.ar    1  UNL1        0.0479
     26 C          44.7880   78.1829   20.2901 C.ar    1  UNL1        0.1553
     27 N          44.7496   78.6381   18.8614 N.ar    1  UNL1       -0.2099
     28 C          45.3611   79.0789   21.3477 C.3     1  UNL1        0.4348
     29 F          45.9343   79.9750   22.4053 F       1  UNL1       -0.1644
     30 F          46.7437   78.6257   20.9824 F       1  UNL1       -0.1644
     31 F          43.9787   79.5321   21.7130 F       1  UNL1       -0.1644
     32 C          44.2917   76.3761   22.0899 C.3     1  UNL1        0.1666
     33 O          44.8178   75.0129   22.4288 O.3     1  UNL1       -0.3771
     34 H          44.2278   74.3375   22.0590 H       1  UNL1        0.2109
     35 C          46.4818   80.8521   16.9848 C.3     1  UNL1        0.0021
     36 C          45.0151   80.7001   16.7101 C.3     1  UNL1        0.0241
     37 C          44.0399   81.6910   17.2731 C.3     1  UNL1        0.0021
@<TRIPOS>BOND
     1    35    36    1
     2    36    37    1
     3     1    36    1
     4     1     2    1
     5     2     3   ar
     6     3     4   ar
     7     4     9    1
     8     9    10   ar
     9    10    11   ar
    10    11    12   ar
    11    12    19    1
    12    19    20    1
    13    12    13   ar
    14    13    15    1
    15    15    16    1
    16    15    17    2
    17    15    18    2
    18    13    14   ar
    19     4     5   ar
    20     5     6   ar
    21     6     7    1
    22     7     8    1
    23     8    22    1
    24    22    23   ar
    25    23    24   ar
    26    24    25   ar
    27    25    32    1
    28    32    33    1
    29    25    26   ar
    30    26    28    1
    31    28    29    1
    32    28    30    1
    33    28    31    1
    34    26    27   ar
    35     8     1    1
    36    27    22   ar
    37     6     2   ar
    38    14     9   ar
    39    20    21    1
    40    33    34    1
@<TRIPOS>MOLECULE
*****
 37 40 0 0 0
SMALL
GASTEIGER

@<TRIPOS>ATOM
      1 C          64.0680   86.4443   14.2928 C.3     1  UNL1        0.1174
      2 C          64.3020   87.8503   13.8253 C.ar    1  UNL1        0.0961
      3 N          65.0171   89.1306   14.1403 N.ar    1  UNL1       -0.1681
      4 N          64.6807   90.1251   13.0689 N.ar    1  UNL1       -0.2287
      5 C          63.7577   89.4593   12.0917 C.ar    1  UNL1        0.0990
      6 C          63.5236   88.0534   12.5592 C.ar    1  UNL1        0.0337
      7 C          62.8085   86.7730   12.2442 C.3     1  UNL1        0.1235
      8 N          63.1449   85.7785   13.3157 N.pl3   1  UNL1       -0.2703
      9 C          65.1797   91.5374   12.9887 C.ar    1  UNL1        0.0841
     10 C          65.3541   92.3435   14.2416 C.ar    1  UNL1        0.0190
     11 C          65.8531   93.7558   14.1613 C.ar    1  UNL1        0.0010
     12 C          66.1777   94.3620   12.8282 C.ar    1  UNL1        0.0242
     13 C          66.0033   93.5559   11.5753 C.ar    1  UNL1        0.1056
     14 C          65.5043   92.1436   11.6556 C.ar    1  UNL1        0.0372
     15 S          66.3278   94.1620   10.2421 S.O2    1  UNL1        0.0103
     16 C          66.6523   94.7681    8.9090 C.3     1  UNL1        0.1816
     17 O          65.0050   94.8695   10.2419 O.2     1  UNL1       -0.1686
     18 O          67.6505   93.4545   10.2424 O.2     1  UNL1       -0.1686
     19 C          66.6767   95.7743   12.7479 C.3     1  UNL1        0.1649
     20 O          65.7843   96.8559   12.2153 O.3     1  UNL1       -0.3772
     21 H          65.6047   96.6937   11.2760 H       1  UNL1        0.2109
     22 C          62.6459   84.3663   13.3958 C.ar    1  UNL1        0.2206
     23 N          61.8461   83.9197   14.5837 N.ar    1  UNL1       -0.2123
     24 C          61.3471   82.5075   14.6638 C.ar    1  UNL1        0.1014
     25 C          61.6479   81.5416   13.5562 C.ar    1  UNL1        0.0479
     26 C          62.4477   81.9882   12.3684 C.ar    1  UNL1        0.1553
     27 N          62.9467   83.4005   12.2882 N.ar    1  UNL1       -0.2099
     28 C          62.7486   81.0224   11.2608 C.3     1  UNL1        0.4348
     29 F          63.0494   80.0567   10.1531 F       1  UNL1       -0.1644
     30 F          62.7401   82.1519   10.2737 F       1  UNL1       -0.1644
     31 F          62.7570   79.8930   12.2479 F       1  UNL1       -0.1644
     32 C          61.1489   80.1293   13.6364 C.3     1  UNL1        0.1666
     33 O          59.8037   79.8420   14.2346 O.3     1  UNL1       -0.3771
     34 H          59.8158   80.0638   15.1789 H       1  UNL1        0.2109
     35 C          65.9870   85.1306   15.4508 C.3     1  UNL1        0.0021
     36 C          64.6540   85.8147   15.5216 C.3     1  UNL1        0.0241
     37 C          63.9070   85.8691   16.8213 C.3     1  UNL1        0.0021
@<TRIPOS>BOND
     1    35    36    1
     2    36    37    1
     3     1    36    1
     4     1     2    1
     5     2     3   ar
     6     3     4   ar
     7     4     9    1
     8     9    10   ar
     9    10    11   ar
    10    11    12   ar
    11    12    19    1
    12    19    20    1
    13    12    13   ar
    14    13    15    1
    15    15    16    1
    16    15    17    2
    17    15    18    2
    18    13    14   ar
    19     4     5   ar
    20     5     6   ar
    21     6     7    1
    22     7     8    1
    23     8    22    1
    24    22    23   ar
    25    23    24   ar
    26    24    25   ar
    27    25    32    1
    28    32    33    1
    29    25    26   ar
    30    26    28    1
    31    28    29    1
    32    28    30    1
    33    28    31    1
    34    26    27   ar
    35     8     1    1
    36    27    22   ar
    37     6     2   ar
    38    14     9   ar
    39    20    21    1
    40    33    34    1
@<TRIPOS>MOLECULE
*****
 37 40 0 0 0
SMALL
GASTEIGER

@<TRIPOS>ATOM
      1 C          61.6057   87.8941   10.6142 C.3     1  UNL1        0.1174
      2 C          61.1086   88.4138    9.2978 C.ar    1  UNL1        0.0961
      3 N          60.8112   89.6614    8.5199 N.ar    1  UNL1       -0.1681
      4 N          60.3043   89.2547    7.1680 N.ar    1  UNL1       -0.2287
      5 C          60.2884   87.7559    7.1104 C.ar    1  UNL1        0.0990
      6 C          60.7855   87.2362    8.4267 C.ar    1  UNL1        0.0337
      7 C          61.0828   85.9887    9.2047 C.3     1  UNL1        0.1235
      8 N          61.5898   86.3952   10.5567 N.pl3   1  UNL1       -0.2703
      9 C          59.8866   90.1838    6.0669 C.ar    1  UNL1        0.0841
     10 C          58.4358   90.5108    5.8714 C.ar    1  UNL1        0.0190
     11 C          58.0182   91.4399    4.7703 C.ar    1  UNL1        0.0010
     12 C          59.0513   92.0420    3.8647 C.ar    1  UNL1        0.0242
     13 C          60.5021   91.7150    4.0602 C.ar    1  UNL1        0.1056
     14 C          60.9197   90.7859    5.1613 C.ar    1  UNL1        0.0372
     15 S          61.5353   92.3171    3.1547 S.O2    1  UNL1        0.0103
     16 C          62.5686   92.9191    2.2491 C.3     1  UNL1        0.1816
     17 O          62.3644   91.0726    3.2734 O.2     1  UNL1       -0.1686
     18 O          60.7062   93.5615    3.0359 O.2     1  UNL1       -0.1686
     19 C          58.6336   92.9711    2.7636 C.3     1  UNL1        0.1649
     20 O          58.8526   92.5830    1.3314 O.3     1  UNL1       -0.3772
     21 H          59.8045   92.5354    1.1512 H       1  UNL1        0.2109
     22 C          62.0074   85.4662   11.6577 C.ar    1  UNL1        0.2206
     23 N          62.2656   86.0029   13.0345 N.ar    1  UNL1       -0.2123
     24 C          62.6832   85.0738   14.1354 C.ar    1  UNL1        0.1014
     25 C          62.8428   83.6079   13.8598 C.ar    1  UNL1        0.0479
     26 C          62.5847   83.0712   12.4831 C.ar    1  UNL1        0.1553
     27 N          62.1670   84.0004   11.3820 N.ar    1  UNL1       -0.2099
     28 C          62.7443   81.6054   12.2075 C.3     1  UNL1        0.4348
     29 F          62.9038   80.1397   11.9319 F       1  UNL1       -0.1644
     30 F          61.4477   81.3322   12.9107 F       1  UNL1       -0.1644
     31 F          64.0407   81.8788   11.5043 F       1  UNL1       -0.1644
     32 C          63.2605   82.6788   14.9609 C.3     1  UNL1        0.1666
     33 O          64.4971   82.9693   15.7586 O.3     1  UNL1       -0.3771
     34 H          65.2758   82.9008   15.1843 H       1  UNL1        0.2109
     35 C          63.4341   88.5885   12.3243 C.3     1  UNL1        0.0021
     36 C          62.0420   88.7269   11.7829 C.3     1  UNL1        0.0241
     37 C          61.0864   89.6981   12.4103 C.3     1  UNL1        0.0021
@<TRIPOS>BOND
     1    35    36    1
     2    36    37    1
     3     1    36    1
     4     1     2    1
     5     2     3   ar
     6     3     4   ar
     7     4     9    1
     8     9    10   ar
     9    10    11   ar
    10    11    12   ar
    11    12    19    1
    12    19    20    1
    13    12    13   ar
    14    13    15    1
    15    15    16    1
    16    15    17    2
    17    15    18    2
    18    13    14   ar
    19     4     5   ar
    20     5     6   ar
    21     6     7    1
    22     7     8    1
    23     8    22    1
    24    22    23   ar
    25    23    24   ar
    26    24    25   ar
    27    25    32    1
    28    32    33    1
    29    25    26   ar
    30    26    28    1
    31    28    29    1
    32    28    30    1
    33    28    31    1
    34    26    27   ar
    35     8     1    1
    36    27    22   ar
    37     6     2   ar
    38    14     9   ar
    39    20    21    1
    40    33    34    1
@<TRIPOS>MOLECULE
*****
 37 40 0 0 0
SMALL
GASTEIGER

@<TRIPOS>ATOM
      1 C          63.6349   85.7735   14.2605 C.3     1  UNL1        0.1174
      2 C          63.8955   87.1503   13.7252 C.ar    1  UNL1        0.0961
      3 N          64.5515   88.4652   14.0262 N.ar    1  UNL1       -0.1681
      4 N          64.3171   89.3779   12.8591 N.ar    1  UNL1       -0.2287
      5 C          63.5163   88.6270   11.8369 C.ar    1  UNL1        0.0990
      6 C          63.2557   87.2503   12.3722 C.ar    1  UNL1        0.0337
      7 C          62.5997   85.9353   12.0713 C.3     1  UNL1        0.1235
      8 N          62.8341   85.0225   13.2384 N.pl3   1  UNL1       -0.2703
      9 C          64.7989   90.7931   12.7358 C.ar    1  UNL1        0.0841
     10 C          64.3496   91.6406   11.5827 C.ar    1  UNL1        0.0190
     11 C          64.8315   93.0558   11.4595 C.ar    1  UNL1        0.0010
     12 C          65.7627   93.6234   12.4894 C.ar    1  UNL1        0.0242
     13 C          66.2120   92.7759   13.6425 C.ar    1  UNL1        0.1056
     14 C          65.7301   91.3607   13.7657 C.ar    1  UNL1        0.0372
     15 S          67.1432   93.3434   14.6725 S.O2    1  UNL1        0.0103
     16 C          68.0743   93.9110   15.7025 C.3     1  UNL1        0.1816
     17 O          65.9683   93.8517   15.4544 O.2     1  UNL1       -0.1686
     18 O          68.3180   92.8351   13.8906 O.2     1  UNL1       -0.1686
     19 C          66.2445   95.0385   12.3661 C.3     1  UNL1        0.1649
     20 O          65.4633   96.0288   11.5543 O.3     1  UNL1       -0.3772
     21 H          65.4834   95.7686   10.6201 H       1  UNL1        0.2109
     22 C          62.3523   83.6075   13.3616 C.ar    1  UNL1        0.2206
     23 N          61.4891   83.2073   14.5213 N.ar    1  UNL1       -0.2123
     24 C          61.0073   81.7923   14.6446 C.ar    1  UNL1        0.1014
     25 C          61.3886   80.7771   13.6080 C.ar    1  UNL1        0.0479
     26 C          62.2517   81.1772   12.4483 C.ar    1  UNL1        0.1553
     27 N          62.7335   82.5924   12.3252 N.ar    1  UNL1       -0.2099
     28 C          62.6329   80.1621   11.4119 C.3     1  UNL1        0.4348
     29 F          63.0142   79.1471   10.3754 F       1  UNL1       -0.1644
     30 F          62.6048   81.2285   10.3573 F       1  UNL1       -0.1644
     31 F          62.6611   79.0958   12.4665 F       1  UNL1       -0.1644
     32 C          60.9067   79.3620   13.7313 C.3     1  UNL1        0.1666
     33 O          59.5034   79.0841   14.1824 O.3     1  UNL1       -0.3771
     34 H          59.3963   79.3728   15.1023 H       1  UNL1        0.2109
     35 C          65.0389   84.0769   15.6391 C.3     1  UNL1        0.0021
     36 C          64.0945   85.2410   15.5854 C.3     1  UNL1        0.0241
     37 C          63.6096   85.8727   16.8566 C.3     1  UNL1        0.0021
@<TRIPOS>BOND
     1    35    36    1
     2    36    37    1
     3     1    36    1
     4     1     2    1
     5     2     3   ar
     6     3     4   ar
     7     4     9    1
     8     9    10   ar
     9    10    11   ar
    10    11    12   ar
    11    12    19    1
    12    19    20    1
    13    12    13   ar
    14    13    15    1
    15    15    16    1
    16    15    17    2
    17    15    18    2
    18    13    14   ar
    19     4     5   ar
    20     5     6   ar
    21     6     7    1
    22     7     8    1
    23     8    22    1
    24    22    23   ar
    25    23    24   ar
    26    24    25   ar
    27    25    32    1
    28    32    33    1
    29    25    26   ar
    30    26    28    1
    31    28    29    1
    32    28    30    1
    33    28    31    1
    34    26    27   ar
    35     8     1    1
    36    27    22   ar
    37     6     2   ar
    38    14     9   ar
    39    20    21    1
    40    33    34    1
@<TRIPOS>MOLECULE
*****
 37 40 0 0 0
SMALL
GASTEIGER

@<TRIPOS>ATOM
      1 C          63.5192   88.7714   12.5473 C.3     1  UNL1        0.1174
      2 C          63.3715   87.3255   12.9181 C.ar    1  UNL1        0.0961
      3 N          62.6170   86.0655   12.6130 N.ar    1  UNL1       -0.1681
      4 N          63.1325   84.9860   13.5180 N.ar    1  UNL1       -0.2287
      5 C          64.2055   85.5789   14.3824 C.ar    1  UNL1        0.0990
      6 C          64.3532   87.0248   14.0116 C.ar    1  UNL1        0.0337
      7 C          65.1077   88.2848   14.3166 C.3     1  UNL1        0.1235
      8 N          64.5922   89.3644   13.4116 N.pl3   1  UNL1       -0.2703
      9 C          62.6582   83.5634   13.5526 C.ar    1  UNL1        0.0841
     10 C          61.8897   83.0576   14.7374 C.ar    1  UNL1        0.0190
     11 C          61.4154   81.6349   14.7719 C.ar    1  UNL1        0.0010
     12 C          61.7096   80.7181   13.6218 C.ar    1  UNL1        0.0242
     13 C          62.4781   81.2239   12.4370 C.ar    1  UNL1        0.1056
     14 C          62.9523   82.6465   12.4025 C.ar    1  UNL1        0.0372
     15 S          62.7723   80.3071   11.2869 S.O2    1  UNL1        0.0103
     16 C          63.0665   79.3903   10.1367 C.3     1  UNL1        0.1816
     17 O          62.5241   79.1200   12.1697 O.2     1  UNL1       -0.1686
     18 O          63.0204   81.4941   10.4041 O.2     1  UNL1       -0.1686
     19 C          61.2353   79.2955   13.6564 C.3     1  UNL1        0.1649
     20 O          59.8219   78.9855   14.0517 O.3     1  UNL1       -0.3772
     21 H          59.6866   79.2244   14.9820 H       1  UNL1        0.2109
     22 C          65.0665   90.7869   13.3770 C.ar    1  UNL1        0.2206
     23 N          64.6544   91.6878   12.2506 N.ar    1  UNL1       -0.2123
     24 C          65.1286   93.1104   12.2160 C.ar    1  UNL1        0.1014
     25 C          66.0152   93.6322   13.3078 C.ar    1  UNL1        0.0479
     26 C          66.4274   92.7314   14.4341 C.ar    1  UNL1        0.1553
     27 N          65.9530   91.3087   14.4687 N.ar    1  UNL1       -0.2099
     28 C          67.3139   93.2532   15.5259 C.3     1  UNL1        0.4348
     29 F          68.2003   93.7750   16.6176 F       1  UNL1       -0.1644
     30 F          66.1827   93.1295   16.5033 F       1  UNL1       -0.1644
     31 F          68.4449   93.3768   14.5484 F       1  UNL1       -0.1644
     32 C          66.4895   95.0548   13.2732 C.3     1  UNL1        0.1666
     33 O          66.0327   95.9712   12.1771 O.3     1  UNL1       -0.3771
     34 H          66.3862   95.6616   11.3285 H       1  UNL1        0.2109
     35 C          63.1430   89.4083   10.0567 C.3     1  UNL1        0.0021
     36 C          62.7321   89.4971   11.4966 C.3     1  UNL1        0.0241
     37 C          61.5340   90.3115   11.8858 C.3     1  UNL1        0.0021
@<TRIPOS>BOND
     1    35    36    1
     2    36    37    1
     3     1    36    1
     4     1     2    1
     5     2     3   ar
     6     3     4   ar
     7     4     9    1
     8     9    10   ar
     9    10    11   ar
    10    11    12   ar
    11    12    19    1
    12    19    20    1
    13    12    13   ar
    14    13    15    1
    15    15    16    1
    16    15    17    2
    17    15    18    2
    18    13    14   ar
    19     4     5   ar
    20     5     6   ar
    21     6     7    1
    22     7     8    1
    23     8    22    1
    24    22    23   ar
    25    23    24   ar
    26    24    25   ar
    27    25    32    1
    28    32    33    1
    29    25    26   ar
    30    26    28    1
    31    28    29    1
    32    28    30    1
    33    28    31    1
    34    26    27   ar
    35     8     1    1
    36    27    22   ar
    37     6     2   ar
    38    14     9   ar
    39    20    21    1
    40    33    34    1
@<TRIPOS>MOLECULE
*****
 37 40 0 0 0
SMALL
GASTEIGER

@<TRIPOS>ATOM
      1 C          61.6158   87.6976   10.6079 C.3     1  UNL1        0.1174
      2 C          61.0782   88.2390    9.3165 C.ar    1  UNL1        0.0961
      3 N          60.7286   89.4985    8.5805 N.ar    1  UNL1       -0.1681
      4 N          60.2084   89.1151    7.2269 N.ar    1  UNL1       -0.2287
      5 C          60.2364   87.6187    7.1262 C.ar    1  UNL1        0.0990
      6 C          60.7740   87.0773    8.4177 C.ar    1  UNL1        0.0337
      7 C          61.1236   85.8178    9.1536 C.3     1  UNL1        0.1235
      8 N          61.6439   86.2012   10.5073 N.pl3   1  UNL1       -0.2703
      9 C          59.7419   90.0618    6.1610 C.ar    1  UNL1        0.0841
     10 C          58.2763   90.3259    5.9815 C.ar    1  UNL1        0.0190
     11 C          57.8099   91.2727    4.9156 C.ar    1  UNL1        0.0010
     12 C          58.8091   91.9553    4.0292 C.ar    1  UNL1        0.0242
     13 C          60.2747   91.6912    4.2087 C.ar    1  UNL1        0.1056
     14 C          60.7411   90.7445    5.2747 C.ar    1  UNL1        0.0372
     15 S          61.2739   92.3738    3.3224 S.O2    1  UNL1        0.0103
     16 C          62.2731   93.0565    2.4361 C.3     1  UNL1        0.1816
     17 O          60.4373   93.6189    3.3382 O.2     1  UNL1       -0.1686
     18 O          62.1105   91.1289    3.3066 O.2     1  UNL1       -0.1686
     19 C          58.3426   92.9021    2.9633 C.3     1  UNL1        0.1649
     20 O          58.7006   92.6513    1.5284 O.3     1  UNL1       -0.3772
     21 H          59.6599   92.7385    1.4145 H       1  UNL1        0.2109
     22 C          62.1103   85.2545   11.5731 C.ar    1  UNL1        0.2206
     23 N          62.2569   83.7934   11.2667 N.ar    1  UNL1       -0.2123
     24 C          62.7233   82.8467   12.3325 C.ar    1  UNL1        0.1014
     25 C          63.0432   83.3609   13.7049 C.ar    1  UNL1        0.0479
     26 C          62.8967   84.8220   14.0113 C.ar    1  UNL1        0.1553
     27 N          62.4303   85.7687   12.9454 N.ar    1  UNL1       -0.2099
     28 C          63.2167   85.3362   15.3836 C.3     1  UNL1        0.4348
     29 F          63.5365   85.8504   16.7559 F       1  UNL1       -0.1644
     30 F          61.9107   84.7987   15.8894 F       1  UNL1       -0.1644
     31 F          64.5226   85.8736   14.8778 F       1  UNL1       -0.1644
     32 C          63.5097   82.4142   14.7707 C.3     1  UNL1        0.1666
     33 O          63.5168   80.9369   14.5109 O.3     1  UNL1       -0.3771
     34 H          62.6052   80.6232   14.4028 H       1  UNL1        0.2109
     35 C          63.4143   88.3086   12.3805 C.3     1  UNL1        0.0021
     36 C          62.0493   88.5099   11.7921 C.3     1  UNL1        0.0241
     37 C          61.1178   89.5235   12.3879 C.3     1  UNL1        0.0021
@<TRIPOS>BOND
     1    35    36    1
     2    36    37    1
     3     1    36    1
     4     1     2    1
     5     2     3   ar
     6     3     4   ar
     7     4     9    1
     8     9    10   ar
     9    10    11   ar
    10    11    12   ar
    11    12    19    1
    12    19    20    1
    13    12    13   ar
    14    13    15    1
    15    15    16    1
    16    15    17    2
    17    15    18    2
    18    13    14   ar
    19     4     5   ar
    20     5     6   ar
    21     6     7    1
    22     7     8    1
    23     8    22    1
    24    22    23   ar
    25    23    24   ar
    26    24    25   ar
    27    25    32    1
    28    32    33    1
    29    25    26   ar
    30    26    28    1
    31    28    29    1
    32    28    30    1
    33    28    31    1
    34    26    27   ar
    35     8     1    1
    36    27    22   ar
    37     6     2   ar
    38    14     9   ar
    39    20    21    1
    40    33    34    1
@<TRIPOS>MOLECULE
*****
 37 40 0 0 0
SMALL
GASTEIGER

@<TRIPOS>ATOM
      1 C          44.7780   79.5247   15.7982 C.3     1  UNL1        0.1174
      2 C          44.5149   79.5659   14.3221 C.ar    1  UNL1        0.0961
      3 N          44.6329   80.4158   13.0917 N.ar    1  UNL1       -0.1681
      4 N          44.0892   79.6327   11.9336 N.ar    1  UNL1       -0.2287
      5 C          43.6351   78.2989   12.4482 C.ar    1  UNL1        0.0990
      6 C          43.8982   78.2577   13.9244 C.ar    1  UNL1        0.0337
      7 C          43.7801   77.4078   15.1548 C.3     1  UNL1        0.1235
      8 N          44.3239   78.1909   16.3130 N.pl3   1  UNL1       -0.2703
      9 C          44.0129   80.1012   10.5107 C.ar    1  UNL1        0.0841
     10 C          43.7095   81.5390   10.2097 C.ar    1  UNL1        0.0190
     11 C          43.6332   82.0074    8.7867 C.ar    1  UNL1        0.0010
     12 C          43.8604   81.0380    7.6647 C.ar    1  UNL1        0.0242
     13 C          44.1638   79.6002    7.9658 C.ar    1  UNL1        0.1056
     14 C          44.2401   79.1318    9.3888 C.ar    1  UNL1        0.0372
     15 S          44.3910   78.6308    6.8439 S.O2    1  UNL1        0.0103
     16 C          44.6182   77.6614    5.7220 C.3     1  UNL1        0.1816
     17 O          45.0799   79.7049    6.0553 O.2     1  UNL1       -0.1686
     18 O          43.7021   77.5567    7.6324 O.2     1  UNL1       -0.1686
     19 C          43.7841   81.5065    6.2418 C.3     1  UNL1        0.1649
     20 O          44.5010   82.7561    5.8241 O.3     1  UNL1       -0.3772
     21 H          44.1030   83.5210    6.2684 H       1  UNL1        0.2109
     22 C          44.4002   77.7224   17.7358 C.ar    1  UNL1        0.2206
     23 N          44.0774   78.6676   18.8550 N.ar    1  UNL1       -0.2123
     24 C          44.1536   78.1992   20.2778 C.ar    1  UNL1        0.1014
     25 C          44.5527   76.7854   20.5817 C.ar    1  UNL1        0.0479
     26 C          44.8755   75.8402   19.4626 C.ar    1  UNL1        0.1553
     27 N          44.7992   76.3088   18.0396 N.ar    1  UNL1       -0.2099
     28 C          45.2745   74.4266   19.7664 C.3     1  UNL1        0.4348
     29 F          45.6734   73.0129   20.0703 F       1  UNL1       -0.1644
     30 F          43.8325   74.0612   19.9598 F       1  UNL1       -0.1644
     31 F          46.7164   74.7920   19.5730 F       1  UNL1       -0.1644
     32 C          44.6290   76.3170   22.0046 C.3     1  UNL1        0.1666
     33 O          44.4391   74.8645   22.3272 O.3     1  UNL1       -0.3771
     34 H          43.5284   74.6034   22.1190 H       1  UNL1        0.2109
     35 C          46.8018   80.5013   17.1021 C.3     1  UNL1        0.0021
     36 C          45.3880   80.6241   16.6162 C.3     1  UNL1        0.0241
     37 C          44.5844   81.8464   16.9482 C.3     1  UNL1        0.0021
@<TRIPOS>BOND
     1    35    36    1
     2    36    37    1
     3     1    36    1
     4     1     2    1
     5     2     3   ar
     6     3     4   ar
     7     4     9    1
     8     9    10   ar
     9    10    11   ar
    10    11    12   ar
    11    12    19    1
    12    19    20    1
    13    12    13   ar
    14    13    15    1
    15    15    16    1
    16    15    17    2
    17    15    18    2
    18    13    14   ar
    19     4     5   ar
    20     5     6   ar
    21     6     7    1
    22     7     8    1
    23     8    22    1
    24    22    23   ar
    25    23    24   ar
    26    24    25   ar
    27    25    32    1
    28    32    33    1
    29    25    26   ar
    30    26    28    1
    31    28    29    1
    32    28    30    1
    33    28    31    1
    34    26    27   ar
    35     8     1    1
    36    27    22   ar
    37     6     2   ar
    38    14     9   ar
    39    20    21    1
    40    33    34    1
@<TRIPOS>MOLECULE
*****
 37 40 0 0 0
SMALL
GASTEIGER

@<TRIPOS>ATOM
      1 C          65.1703   90.4990   13.6712 C.3     1  UNL1        0.1174
      2 C          64.5208   89.1485   13.6066 C.ar    1  UNL1        0.0961
      3 N          64.2673   87.8858   14.3755 N.ar    1  UNL1       -0.1681
      4 N          63.4697   86.9634   13.5020 N.ar    1  UNL1       -0.2287
      5 C          63.2302   87.6560   12.1932 C.ar    1  UNL1        0.0990
      6 C          63.8798   89.0065   12.2579 C.ar    1  UNL1        0.0337
      7 C          64.1333   90.2692   11.4889 C.3     1  UNL1        0.1235
      8 N          64.9309   91.1917   12.3624 N.pl3   1  UNL1       -0.2703
      9 C          62.9949   85.5895   13.8723 C.ar    1  UNL1        0.0841
     10 C          62.2952   85.3649   15.1799 C.ar    1  UNL1        0.0190
     11 C          61.8204   83.9909   15.5500 C.ar    1  UNL1        0.0010
     12 C          62.0454   82.8417   14.6127 C.ar    1  UNL1        0.0242
     13 C          62.7451   83.0664   13.3051 C.ar    1  UNL1        0.1056
     14 C          63.2199   84.4403   12.9349 C.ar    1  UNL1        0.0372
     15 S          62.9702   81.9172   12.3676 S.O2    1  UNL1        0.0103
     16 C          63.1951   80.7681   11.4302 C.3     1  UNL1        0.1816
     17 O          61.9963   82.5180   11.3976 O.2     1  UNL1       -0.1686
     18 O          63.9439   81.3165   13.3376 O.2     1  UNL1       -0.1686
     19 C          61.5706   81.4678   14.9829 C.3     1  UNL1        0.1649
     20 O          60.4079   80.8558   14.2593 O.3     1  UNL1       -0.3772
     21 H          59.6038   81.3628   14.4522 H       1  UNL1        0.2109
     22 C          65.4056   92.5655   11.9922 C.ar    1  UNL1        0.2206
     23 N          65.5803   93.6103   13.0543 N.ar    1  UNL1       -0.2123
     24 C          66.0550   94.9841   12.6840 C.ar    1  UNL1        0.1014
     25 C          66.3552   95.3133   11.2516 C.ar    1  UNL1        0.0479
     26 C          66.1806   94.2685   10.1895 C.ar    1  UNL1        0.1553
     27 N          65.7058   92.8946   10.5599 N.ar    1  UNL1       -0.2099
     28 C          66.4808   94.5976    8.7572 C.3     1  UNL1        0.4348
     29 F          66.7811   94.9267    7.3249 F       1  UNL1       -0.1644
     30 F          67.6190   93.6207    8.7714 F       1  UNL1       -0.1644
     31 F          65.3426   95.5745    8.7432 F       1  UNL1       -0.1644
     32 C          66.8300   96.6871   10.8814 C.3     1  UNL1        0.1666
     33 O          67.9097   96.8560    9.8540 O.3     1  UNL1       -0.3771
     34 H          68.7390   96.4834   10.1922 H       1  UNL1        0.2109
     35 C          65.1867   91.7170   15.9660 C.3     1  UNL1        0.0021
     36 C          65.9266   91.0586   14.8395 C.3     1  UNL1        0.0241
     37 C          67.4228   90.9598   14.8812 C.3     1  UNL1        0.0021
@<TRIPOS>BOND
     1    35    36    1
     2    36    37    1
     3     1    36    1
     4     1     2    1
     5     2     3   ar
     6     3     4   ar
     7     4     9    1
     8     9    10   ar
     9    10    11   ar
    10    11    12   ar
    11    12    19    1
    12    19    20    1
    13    12    13   ar
    14    13    15    1
    15    15    16    1
    16    15    17    2
    17    15    18    2
    18    13    14   ar
    19     4     5   ar
    20     5     6   ar
    21     6     7    1
    22     7     8    1
    23     8    22    1
    24    22    23   ar
    25    23    24   ar
    26    24    25   ar
    27    25    32    1
    28    32    33    1
    29    25    26   ar
    30    26    28    1
    31    28    29    1
    32    28    30    1
    33    28    31    1
    34    26    27   ar
    35     8     1    1
    36    27    22   ar
    37     6     2   ar
    38    14     9   ar
    39    20    21    1
    40    33    34    1
