@<TRIPOS>MOLECULE
*****
 41 44 0 0 0
SMALL
GASTEIGER

@<TRIPOS>ATOM
      1 C          62.6128   88.4781   12.0777 C.ar    1  UNL1        0.2144
      2 C          62.2908   89.0114   10.7132 C.ar    1  UNL1        0.1822
      3 O          62.9209   90.2873   10.2387 O.2     1  UNL1       -0.4500
      4 C          63.8731   91.0298   11.1287 C.ar    1  UNL1        0.1545
      5 C          64.5032   92.3056   10.6541 C.ar    1  UNL1        0.0744
      6 C          65.4553   93.0481   11.5441 C.ar    1  UNL1        0.1397
      7 O          66.0855   94.3240   11.0696 O.3     1  UNL1       -0.5053
      8 C          65.7773   92.5148   12.9086 C.ar    1  UNL1        0.0735
      9 C          65.1473   91.2390   13.3831 C.ar    1  UNL1        0.1428
     10 O          65.4693   90.7057   14.7476 O.3     1  UNL1       -0.5052
     11 C          64.1951   90.4965   12.4932 C.ar    1  UNL1        0.1104
     12 C          63.5650   89.2206   12.9677 C.ar    1  UNL1        0.2382
     13 O          63.8870   88.6873   14.3322 O.2     1  UNL1       -0.2830
     14 H          65.8843   94.6572   10.2172 H       1  UNL1        0.2922
     15 H          66.0641   91.1695   15.3036 H       1  UNL1        0.2922
     16 C          61.3386   88.2689    9.8232 C.ar    1  UNL1        0.0379
     17 C          59.8928   88.6653    9.7752 C.ar    1  UNL1        0.0062
     18 C          58.9407   87.9227    8.8853 C.ar    1  UNL1        0.0367
     19 C          59.4344   86.7837    8.0433 C.ar    1  UNL1        0.1337
     20 O          58.4822   86.0411    7.1533 O.3     1  UNL1       -0.5055
     21 C          60.8803   86.3873    8.0913 C.ar    1  UNL1        0.0367
     22 C          61.8324   87.1299    8.9813 C.ar    1  UNL1        0.0062
     23 H          57.5791   86.2888    7.1234 H       1  UNL1        0.2922
     24 O          61.9827   87.2022   12.5522 O.3     1  UNL1       -0.4433
     25 C          63.5225   83.5644   12.9331 C.3     1  UNL1        0.2438
     26 C          63.8512   83.2447   11.5049 C.3     1  UNL1        0.1816
     27 O          64.4740   81.9255   11.1558 O.3     1  UNL1       -0.3785
     28 C          63.5570   84.2442   10.4258 C.3     1  UNL1        0.1494
     29 C          63.8857   83.9245    8.9976 C.3     1  UNL1        0.0349
     30 O          62.9342   85.5634   10.7749 O.3     1  UNL1       -0.3177
     31 C          62.6055   85.8831   12.2031 C.3     1  UNL1        0.3333
     32 C          62.8997   84.8836   13.2822 C.3     1  UNL1        0.2803
     33 H          64.6204   81.8805   10.1980 H       1  UNL1        0.2106
     34 O          63.8166   82.5649   14.0122 O.3     1  UNL1       -0.4456
     35 C          61.4774   81.4380   14.1024 C.3     1  UNL1        0.1212
     36 C          62.9731   81.3314   14.1421 C.2     1  UNL1        0.3176
     37 O          63.6252   79.9913   14.3118 O.2     1  UNL1       -0.2501
     38 O          62.5710   85.2032   14.7104 O.3     1  UNL1       -0.4417
     39 C          63.6462   85.6884   15.6370 C.2     1  UNL1        0.3178
     40 C          63.2930   86.1475   17.0206 C.3     1  UNL1        0.1212
     41 O          65.0747   85.7144   15.1799 O.2     1  UNL1       -0.2501
@<TRIPOS>BOND
     1    35    36    1
     2    36    37    2
     3    36    34    1
     4    25    34    1
     5    25    26    1
     6    26    27    1
     7    26    28    1
     8    28    29    1
     9    28    30    1
    10    30    31    1
    11    31    24    1
    12    24     1    1
    13     1     2   ar
    14     2    16    1
    15    16    17   ar
    16    17    18   ar
    17    18    19   ar
    18    19    20    1
    19    19    21   ar
    20    21    22   ar
    21     2     3   ar
    22     3     4   ar
    23     4     5   ar
    24     5     6   ar
    25     6     7    1
    26     6     8   ar
    27     8     9   ar
    28     9    10    1
    29     9    11   ar
    30    11    12   ar
    31    12    13    2
    32    31    32    1
    33    32    38    1
    34    38    39    1
    35    39    40    1
    36    39    41    2
    37    32    25    1
    38    12     1   ar
    39    22    16   ar
    40    11     4   ar
    41    27    33    1
    42    20    23    1
    43     7    14    1
    44    10    15    1
@<TRIPOS>MOLECULE
*****
 41 44 0 0 0
SMALL
GASTEIGER

@<TRIPOS>ATOM
      1 C          62.9587   87.1485   12.1823 C.ar    1  UNL1        0.2144
      2 C          62.0582   86.3491   11.2878 C.ar    1  UNL1        0.1822
      3 O          61.9160   84.8703   11.4947 O.2     1  UNL1       -0.4500
      4 C          62.6743   84.1908   12.5962 C.ar    1  UNL1        0.1545
      5 C          62.5321   82.7120   12.8032 C.ar    1  UNL1        0.0744
      6 C          63.2905   82.0325   13.9046 C.ar    1  UNL1        0.1397
      7 O          63.1483   80.5536   14.1116 O.3     1  UNL1       -0.5053
      8 C          64.1910   82.8318   14.7991 C.ar    1  UNL1        0.0735
      9 C          64.3332   84.3106   14.5921 C.ar    1  UNL1        0.1428
     10 O          65.2338   85.1100   15.4866 O.3     1  UNL1       -0.5052
     11 C          63.5749   84.9901   13.4907 C.ar    1  UNL1        0.1104
     12 C          63.7170   86.4690   13.2837 C.ar    1  UNL1        0.2382
     13 O          64.6176   87.2683   14.1782 O.2     1  UNL1       -0.2830
     14 H          62.5857   80.0543   13.5529 H       1  UNL1        0.2922
     15 H          65.7075   84.6855   16.1746 H       1  UNL1        0.2922
     16 C          61.2998   87.0287   10.1863 C.ar    1  UNL1        0.0379
     17 C          60.9404   88.4799   10.3077 C.ar    1  UNL1        0.0062
     18 C          60.1821   89.1593    9.2062 C.ar    1  UNL1        0.0367
     19 C          59.7831   88.3876    7.9834 C.ar    1  UNL1        0.1337
     20 O          59.0248   89.0671    6.8819 O.3     1  UNL1       -0.5055
     21 C          60.1426   86.9364    7.8620 C.ar    1  UNL1        0.0367
     22 C          60.9009   86.2569    8.9635 C.ar    1  UNL1        0.0062
     23 H          58.8003   89.9737    6.9578 H       1  UNL1        0.2922
     24 O          63.1009   88.6273   11.9753 O.3     1  UNL1       -0.4433
     25 C          64.8397   91.5517   14.0184 C.3     1  UNL1        0.2438
     26 C          64.3335   91.2706   15.4021 C.3     1  UNL1        0.1816
     27 O          64.7444   92.1517   16.5444 O.3     1  UNL1       -0.3785
     28 C          63.4165   90.1084   15.6436 C.3     1  UNL1        0.1494
     29 C          62.9103   89.8273   17.0274 C.3     1  UNL1        0.0349
     30 O          63.0056   89.2273   14.5013 O.3     1  UNL1       -0.3177
     31 C          63.5118   89.5084   13.1175 C.3     1  UNL1        0.3333
     32 C          64.4288   90.6706   12.8761 C.3     1  UNL1        0.2803
     33 H          64.3320   91.8336   17.3627 H       1  UNL1        0.2106
     34 O          65.7567   92.7139   13.7770 O.3     1  UNL1       -0.4456
     35 C          67.9374   92.8835   15.1791 C.3     1  UNL1        0.1212
     36 C          67.2412   92.5354   13.8968 C.2     1  UNL1        0.3176
     37 O          68.0296   92.0089   12.7344 O.2     1  UNL1       -0.2501
     38 O          64.9350   90.9517   11.4924 O.3     1  UNL1       -0.4417
     39 C          64.2188   91.9377   10.6177 C.2     1  UNL1        0.3178
     40 C          62.9569   91.5369    9.9129 C.3     1  UNL1        0.1212
     41 O          64.7648   93.3245   10.4478 O.2     1  UNL1       -0.2501
@<TRIPOS>BOND
     1    35    36    1
     2    36    37    2
     3    36    34    1
     4    25    34    1
     5    25    26    1
     6    26    27    1
     7    26    28    1
     8    28    29    1
     9    28    30    1
    10    30    31    1
    11    31    24    1
    12    24     1    1
    13     1     2   ar
    14     2    16    1
    15    16    17   ar
    16    17    18   ar
    17    18    19   ar
    18    19    20    1
    19    19    21   ar
    20    21    22   ar
    21     2     3   ar
    22     3     4   ar
    23     4     5   ar
    24     5     6   ar
    25     6     7    1
    26     6     8   ar
    27     8     9   ar
    28     9    10    1
    29     9    11   ar
    30    11    12   ar
    31    12    13    2
    32    31    32    1
    33    32    38    1
    34    38    39    1
    35    39    40    1
    36    39    41    2
    37    32    25    1
    38    12     1   ar
    39    22    16   ar
    40    11     4   ar
    41    27    33    1
    42    20    23    1
    43     7    14    1
    44    10    15    1
@<TRIPOS>MOLECULE
*****
 41 44 0 0 0
SMALL
GASTEIGER

@<TRIPOS>ATOM
      1 C          62.3287   87.6341   11.4446 C.ar    1  UNL1        0.2144
      2 C          62.5214   89.1185   11.3472 C.ar    1  UNL1        0.1822
      3 O          61.8409   89.8933   10.2579 O.2     1  UNL1       -0.4500
      4 C          60.9677   89.1837    9.2659 C.ar    1  UNL1        0.1545
      5 C          60.2872   89.9585    8.1766 C.ar    1  UNL1        0.0744
      6 C          59.4140   89.2489    7.1847 C.ar    1  UNL1        0.1397
      7 O          58.7335   90.0237    6.0953 O.3     1  UNL1       -0.5053
      8 C          59.2213   87.7645    7.2820 C.ar    1  UNL1        0.0735
      9 C          59.9018   86.9897    8.3713 C.ar    1  UNL1        0.1428
     10 O          59.7091   85.5053    8.4687 O.3     1  UNL1       -0.5052
     11 C          60.7750   87.6993    9.3633 C.ar    1  UNL1        0.1104
     12 C          61.4555   86.9245   10.4526 C.ar    1  UNL1        0.2382
     13 O          61.2628   85.4401   10.5500 O.2     1  UNL1       -0.2830
     14 H          58.8538   90.9509    6.0345 H       1  UNL1        0.2922
     15 H          59.1636   85.0621    7.8491 H       1  UNL1        0.2922
     16 C          63.3947   89.8281   12.3392 C.ar    1  UNL1        0.0379
     17 C          63.9652   91.1751   12.0075 C.ar    1  UNL1        0.0062
     18 C          64.8384   91.8846   12.9995 C.ar    1  UNL1        0.0367
     19 C          65.1411   91.2471   14.3231 C.ar    1  UNL1        0.1337
     20 O          66.0143   91.9567   15.3151 O.3     1  UNL1       -0.5055
     21 C          64.5705   89.9002   14.6548 C.ar    1  UNL1        0.0367
     22 C          63.6973   89.1906   13.6628 C.ar    1  UNL1        0.0062
     23 H          66.3707   92.7982   15.1079 H       1  UNL1        0.2922
     24 O          63.0092   86.8593   12.5339 O.3     1  UNL1       -0.4433
     25 C          62.9119   83.0009   13.4576 C.3     1  UNL1        0.2438
     26 C          63.4341   82.3927   12.1898 C.3     1  UNL1        0.1816
     27 O          63.5758   80.9038   12.0751 O.3     1  UNL1       -0.3785
     28 C          63.8148   83.2733   11.0367 C.3     1  UNL1        0.1494
     29 C          64.3371   82.6651    9.7690 C.3     1  UNL1        0.0349
     30 O          63.6732   84.7622   11.1514 O.3     1  UNL1       -0.3177
     31 C          63.1509   85.3705   12.4192 C.3     1  UNL1        0.3333
     32 C          62.7702   84.4898   13.5723 C.3     1  UNL1        0.2803
     33 H          63.9241   80.6787   11.1983 H       1  UNL1        0.2106
     34 O          62.5312   82.1203   14.6106 O.3     1  UNL1       -0.4456
     35 C          60.4249   80.6791   14.1244 C.3     1  UNL1        0.1212
     36 C          61.9033   80.7819   14.3568 C.2     1  UNL1        0.3176
     37 O          62.7536   79.5464   14.3354 O.2     1  UNL1       -0.2501
     38 O          62.2480   85.0981   14.8400 O.3     1  UNL1       -0.4417
     39 C          63.2046   85.6077   15.8770 C.2     1  UNL1        0.3178
     40 C          62.6924   86.0585   17.2128 C.3     1  UNL1        0.1212
     41 O          64.6733   85.6666   15.5780 O.2     1  UNL1       -0.2501
@<TRIPOS>BOND
     1    35    36    1
     2    36    37    2
     3    36    34    1
     4    25    34    1
     5    25    26    1
     6    26    27    1
     7    26    28    1
     8    28    29    1
     9    28    30    1
    10    30    31    1
    11    31    24    1
    12    24     1    1
    13     1     2   ar
    14     2    16    1
    15    16    17   ar
    16    17    18   ar
    17    18    19   ar
    18    19    20    1
    19    19    21   ar
    20    21    22   ar
    21     2     3   ar
    22     3     4   ar
    23     4     5   ar
    24     5     6   ar
    25     6     7    1
    26     6     8   ar
    27     8     9   ar
    28     9    10    1
    29     9    11   ar
    30    11    12   ar
    31    12    13    2
    32    31    32    1
    33    32    38    1
    34    38    39    1
    35    39    40    1
    36    39    41    2
    37    32    25    1
    38    12     1   ar
    39    22    16   ar
    40    11     4   ar
    41    27    33    1
    42    20    23    1
    43     7    14    1
    44    10    15    1
@<TRIPOS>MOLECULE
*****
 41 44 0 0 0
SMALL
GASTEIGER

@<TRIPOS>ATOM
      1 C          63.5042   89.7030   13.5890 C.ar    1  UNL1        0.2144
      2 C          64.3452   88.9905   14.6064 C.ar    1  UNL1        0.1822
      3 O          65.6679   89.5641   15.0206 O.2     1  UNL1       -0.4500
      4 C          66.1495   90.8503   14.4174 C.ar    1  UNL1        0.1545
      5 C          67.4721   91.4239   14.8316 C.ar    1  UNL1        0.0744
      6 C          67.9538   92.7100   14.2284 C.ar    1  UNL1        0.1397
      7 O          69.2764   93.2837   14.6425 O.3     1  UNL1       -0.5053
      8 C          67.1128   93.4225   13.2110 C.ar    1  UNL1        0.0735
      9 C          65.7902   92.8489   12.7968 C.ar    1  UNL1        0.1428
     10 O          64.9492   93.5614   11.7794 O.3     1  UNL1       -0.5052
     11 C          65.3085   91.5628   13.4000 C.ar    1  UNL1        0.1104
     12 C          63.9859   90.9891   12.9858 C.ar    1  UNL1        0.2382
     13 O          63.1449   91.7016   11.9684 O.2     1  UNL1       -0.2830
     14 H          69.8018   92.8387   15.2781 H       1  UNL1        0.2922
     15 H          65.2500   94.3648   11.4026 H       1  UNL1        0.2922
     16 C          63.8636   87.7043   15.2097 C.ar    1  UNL1        0.0379
     17 C          64.1128   86.4049   14.5031 C.ar    1  UNL1        0.0062
     18 C          63.6311   85.1188   15.1063 C.ar    1  UNL1        0.0367
     19 C          62.9002   85.1322   16.4161 C.ar    1  UNL1        0.1337
     20 O          62.4185   83.8460   17.0193 O.3     1  UNL1       -0.5055
     21 C          62.6510   86.4316   17.1227 C.ar    1  UNL1        0.0367
     22 C          63.1326   87.7177   16.5195 C.ar    1  UNL1        0.0062
     23 H          62.5742   83.0342   16.5779 H       1  UNL1        0.2922
     24 O          62.1816   89.1293   13.1749 O.3     1  UNL1       -0.4433
     25 C          61.2416   88.2084    9.4307 C.3     1  UNL1        0.2438
     26 C          61.8325   86.8341    9.3199 C.3     1  UNL1        0.1816
     27 O          61.7162   86.0691    8.0349 O.3     1  UNL1       -0.3785
     28 C          62.5398   86.2249   10.4941 C.3     1  UNL1        0.1494
     29 C          63.1307   84.8507   10.3833 C.3     1  UNL1        0.0349
     30 O          62.6561   86.9899   11.7791 O.3     1  UNL1       -0.3177
     31 C          62.0652   88.3642   11.8899 C.3     1  UNL1        0.3333
     32 C          61.3580   88.9734   10.7157 C.3     1  UNL1        0.2803
     33 H          62.1480   85.2060    8.1323 H       1  UNL1        0.2106
     34 O          60.5344   88.8175    8.2566 O.3     1  UNL1       -0.4456
     35 C          58.4857   88.8918    6.6605 C.3     1  UNL1        0.1212
     36 C          59.2530   88.2173    7.7589 C.2     1  UNL1        0.3176
     37 O          58.7389   86.9426    8.3595 O.2     1  UNL1       -0.2501
     38 O          60.7671   90.3476   10.8266 O.3     1  UNL1       -0.4417
     39 C          59.4563   90.5461   11.5284 C.2     1  UNL1        0.3178
     40 C          58.8122   89.4010   12.2522 C.3     1  UNL1        0.1212
     41 O          58.7898   91.8897   11.5065 O.2     1  UNL1       -0.2501
@<TRIPOS>BOND
     1    35    36    1
     2    36    37    2
     3    36    34    1
     4    25    34    1
     5    25    26    1
     6    26    27    1
     7    26    28    1
     8    28    29    1
     9    28    30    1
    10    30    31    1
    11    31    24    1
    12    24     1    1
    13     1     2   ar
    14     2    16    1
    15    16    17   ar
    16    17    18   ar
    17    18    19   ar
    18    19    20    1
    19    19    21   ar
    20    21    22   ar
    21     2     3   ar
    22     3     4   ar
    23     4     5   ar
    24     5     6   ar
    25     6     7    1
    26     6     8   ar
    27     8     9   ar
    28     9    10    1
    29     9    11   ar
    30    11    12   ar
    31    12    13    2
    32    31    32    1
    33    32    38    1
    34    38    39    1
    35    39    40    1
    36    39    41    2
    37    32    25    1
    38    12     1   ar
    39    22    16   ar
    40    11     4   ar
    41    27    33    1
    42    20    23    1
    43     7    14    1
    44    10    15    1
@<TRIPOS>MOLECULE
*****
 41 44 0 0 0
SMALL
GASTEIGER

@<TRIPOS>ATOM
      1 C          63.5682   89.5742   13.4790 C.ar    1  UNL1        0.2144
      2 C          64.3592   88.9766   14.6046 C.ar    1  UNL1        0.1822
      3 O          65.6097   89.6521   15.0840 O.2     1  UNL1       -0.4500
      4 C          66.0693   90.9254   14.4376 C.ar    1  UNL1        0.1545
      5 C          67.3198   91.6009   14.9170 C.ar    1  UNL1        0.0744
      6 C          67.7793   92.8741   14.2706 C.ar    1  UNL1        0.1397
      7 O          69.0298   93.5497   14.7500 O.3     1  UNL1       -0.5053
      8 C          66.9882   93.4718   13.1450 C.ar    1  UNL1        0.0735
      9 C          65.7377   92.7962   12.6657 C.ar    1  UNL1        0.1428
     10 O          64.9467   93.3939   11.5400 O.3     1  UNL1       -0.5052
     11 C          65.2782   91.5230   13.3120 C.ar    1  UNL1        0.1104
     12 C          64.0276   90.8474   12.8327 C.ar    1  UNL1        0.2382
     13 O          63.2366   91.4451   11.7070 O.2     1  UNL1       -0.2830
     14 H          69.5240   93.1764   15.4531 H       1  UNL1        0.2922
     15 H          65.2337   94.1892   11.1363 H       1  UNL1        0.2922
     16 C          63.8996   87.7033   15.2510 C.ar    1  UNL1        0.0379
     17 C          64.3509   86.3805   14.7065 C.ar    1  UNL1        0.0062
     18 C          63.8913   85.1073   15.3528 C.ar    1  UNL1        0.0367
     19 C          62.9805   85.1569   16.5436 C.ar    1  UNL1        0.1337
     20 O          62.5210   83.8836   17.1899 O.3     1  UNL1       -0.5055
     21 C          62.5293   86.4797   17.0881 C.ar    1  UNL1        0.0367
     22 C          62.9888   87.7529   16.4418 C.ar    1  UNL1        0.0062
     23 H          62.8028   83.0573   16.8498 H       1  UNL1        0.2922
     24 O          62.3176   88.8986   12.9997 O.3     1  UNL1       -0.4433
     25 C          61.9375   86.9396    9.5693 C.3     1  UNL1        0.2438
     26 C          62.5670   85.6247    9.9225 C.3     1  UNL1        0.1816
     27 O          62.6501   84.5334    8.8967 O.3     1  UNL1       -0.3785
     28 C          63.1133   85.4010   11.3015 C.3     1  UNL1        0.1494
     29 C          63.7428   84.0861   11.6547 C.3     1  UNL1        0.0349
     30 O          63.0302   86.4923   12.3272 O.3     1  UNL1       -0.3177
     31 C          62.4007   87.8073   11.9739 C.3     1  UNL1        0.3333
     32 C          61.8544   88.0309   10.5950 C.3     1  UNL1        0.2803
     33 H          63.0819   83.7566    9.2854 H       1  UNL1        0.2106
     34 O          61.3912   87.1631    8.1904 O.3     1  UNL1       -0.4456
     35 C          58.8034   86.9982    8.0275 C.3     1  UNL1        0.1212
     36 C          60.1619   86.4294    7.7426 C.2     1  UNL1        0.3176
     37 O          60.2910   85.1269    7.0099 O.2     1  UNL1       -0.2501
     38 O          61.2249   89.3458   10.2418 O.3     1  UNL1       -0.4417
     39 C          59.9713   89.7879   10.9369 C.2     1  UNL1        0.3178
     40 C          59.1656   88.8019   11.7297 C.3     1  UNL1        0.1212
     41 O          59.5234   91.2161   10.8390 O.2     1  UNL1       -0.2501
@<TRIPOS>BOND
     1    35    36    1
     2    36    37    2
     3    36    34    1
     4    25    34    1
     5    25    26    1
     6    26    27    1
     7    26    28    1
     8    28    29    1
     9    28    30    1
    10    30    31    1
    11    31    24    1
    12    24     1    1
    13     1     2   ar
    14     2    16    1
    15    16    17   ar
    16    17    18   ar
    17    18    19   ar
    18    19    20    1
    19    19    21   ar
    20    21    22   ar
    21     2     3   ar
    22     3     4   ar
    23     4     5   ar
    24     5     6   ar
    25     6     7    1
    26     6     8   ar
    27     8     9   ar
    28     9    10    1
    29     9    11   ar
    30    11    12   ar
    31    12    13    2
    32    31    32    1
    33    32    38    1
    34    38    39    1
    35    39    40    1
    36    39    41    2
    37    32    25    1
    38    12     1   ar
    39    22    16   ar
    40    11     4   ar
    41    27    33    1
    42    20    23    1
    43     7    14    1
    44    10    15    1
@<TRIPOS>MOLECULE
*****
 41 44 0 0 0
SMALL
GASTEIGER

@<TRIPOS>ATOM
      1 C          62.3401   88.0982   12.0041 C.ar    1  UNL1        0.2144
      2 C          62.4053   86.6184   11.7678 C.ar    1  UNL1        0.1822
      3 O          61.7082   86.0165   10.5838 O.2     1  UNL1       -0.4500
      4 C          60.9459   86.8945    9.6361 C.ar    1  UNL1        0.1545
      5 C          60.2488   86.2926    8.4521 C.ar    1  UNL1        0.0744
      6 C          59.4866   87.1706    7.5045 C.ar    1  UNL1        0.1397
      7 O          58.7895   86.5687    6.3204 O.3     1  UNL1       -0.5053
      8 C          59.4214   88.6504    7.7408 C.ar    1  UNL1        0.0735
      9 C          60.1184   89.2523    8.9248 C.ar    1  UNL1        0.1428
     10 O          60.0532   90.7321    9.1611 O.3     1  UNL1       -0.5052
     11 C          60.8807   88.3743    9.8724 C.ar    1  UNL1        0.1104
     12 C          61.5778   88.9762   11.0565 C.ar    1  UNL1        0.2382
     13 O          61.5126   90.4560   11.2928 O.2     1  UNL1       -0.2830
     14 H          58.8302   85.6443    6.1728 H       1  UNL1        0.2922
     15 H          59.5771   91.2805    8.5691 H       1  UNL1        0.2922
     16 C          63.1676   85.7404   12.7155 C.ar    1  UNL1        0.0379
     17 C          63.9071   86.3479   13.8705 C.ar    1  UNL1        0.0062
     18 C          64.6694   85.4699   14.8181 C.ar    1  UNL1        0.0367
     19 C          64.6921   83.9845   14.6109 C.ar    1  UNL1        0.1337
     20 O          65.4544   83.1065   15.5586 O.3     1  UNL1       -0.5055
     21 C          63.9525   83.3770   13.4559 C.ar    1  UNL1        0.0367
     22 C          63.1903   84.2550   12.5082 C.ar    1  UNL1        0.0062
     23 H          65.9164   83.4860   16.2801 H       1  UNL1        0.2922
     24 O          63.0372   88.7001   13.1882 O.3     1  UNL1       -0.4433
     25 C          65.5551   91.6628   13.9835 C.3     1  UNL1        0.2438
     26 C          65.5332   92.4102   12.6831 C.3     1  UNL1        0.1816
     27 O          66.3652   93.6469   12.5148 O.3     1  UNL1       -0.3785
     28 C          64.6793   91.9209   11.5511 C.3     1  UNL1        0.1494
     29 C          64.6575   92.6682   10.2507 C.3     1  UNL1        0.0349
     30 O          63.8473   90.6842   11.7194 O.3     1  UNL1       -0.3177
     31 C          63.8692   89.9368   13.0198 C.3     1  UNL1        0.3333
     32 C          64.7230   90.4261   14.1518 C.3     1  UNL1        0.2803
     33 H          66.2363   94.0043   11.6223 H       1  UNL1        0.2106
     34 O          66.4089   92.1521   15.1155 O.3     1  UNL1       -0.4456
     35 C          68.7663   92.3348   16.1922 C.3     1  UNL1        0.1212
     36 C          67.9026   92.1630   14.9779 C.2     1  UNL1        0.3176
     37 O          68.5325   92.0020   13.6262 O.2     1  UNL1       -0.2501
     38 O          64.7449   89.6787   15.4521 O.3     1  UNL1       -0.4417
     39 C          63.5962   89.8041   16.4087 C.2     1  UNL1        0.3178
     40 C          62.9222   88.5725   16.9369 C.3     1  UNL1        0.1212
     41 O          63.1215   91.1610   16.8369 O.2     1  UNL1       -0.2501
@<TRIPOS>BOND
     1    35    36    1
     2    36    37    2
     3    36    34    1
     4    25    34    1
     5    25    26    1
     6    26    27    1
     7    26    28    1
     8    28    29    1
     9    28    30    1
    10    30    31    1
    11    31    24    1
    12    24     1    1
    13     1     2   ar
    14     2    16    1
    15    16    17   ar
    16    17    18   ar
    17    18    19   ar
    18    19    20    1
    19    19    21   ar
    20    21    22   ar
    21     2     3   ar
    22     3     4   ar
    23     4     5   ar
    24     5     6   ar
    25     6     7    1
    26     6     8   ar
    27     8     9   ar
    28     9    10    1
    29     9    11   ar
    30    11    12   ar
    31    12    13    2
    32    31    32    1
    33    32    38    1
    34    38    39    1
    35    39    40    1
    36    39    41    2
    37    32    25    1
    38    12     1   ar
    39    22    16   ar
    40    11     4   ar
    41    27    33    1
    42    20    23    1
    43     7    14    1
    44    10    15    1
@<TRIPOS>MOLECULE
*****
 41 44 0 0 0
SMALL
GASTEIGER

@<TRIPOS>ATOM
      1 C          63.2868   85.3588   12.6239 C.ar    1  UNL1        0.2144
      2 C          63.2060   85.2416   14.1172 C.ar    1  UNL1        0.1822
      3 O          63.0539   83.8932   14.7565 O.2     1  UNL1       -0.4500
      4 C          62.9825   82.6620   13.9025 C.ar    1  UNL1        0.1545
      5 C          62.8304   81.3137   14.5419 C.ar    1  UNL1        0.0744
      6 C          62.7590   80.0826   13.6879 C.ar    1  UNL1        0.1397
      7 O          62.6069   78.7341   14.3272 O.3     1  UNL1       -0.5053
      8 C          62.8398   80.1998   12.1947 C.ar    1  UNL1        0.0735
      9 C          62.9920   81.5481   11.5554 C.ar    1  UNL1        0.1428
     10 O          63.0728   81.6654   10.0622 O.3     1  UNL1       -0.5052
     11 C          63.0633   82.7792   12.4093 C.ar    1  UNL1        0.1104
     12 C          63.2155   84.1277   11.7700 C.ar    1  UNL1        0.2382
     13 O          63.2963   84.2449   10.2768 O.2     1  UNL1       -0.2830
     14 H          62.5564   78.6609   15.2600 H       1  UNL1        0.2922
     15 H          63.0282   80.8963    9.5288 H       1  UNL1        0.2922
     16 C          63.2774   86.4728   14.9711 C.ar    1  UNL1        0.0379
     17 C          62.6741   86.4690   16.3444 C.ar    1  UNL1        0.0062
     18 C          62.7455   87.7002   17.1982 C.ar    1  UNL1        0.0367
     19 C          63.4202   88.9351   16.6788 C.ar    1  UNL1        0.1337
     20 O          63.4916   90.1663   17.5327 O.3     1  UNL1       -0.5055
     21 C          64.0235   88.9388   15.3055 C.ar    1  UNL1        0.0367
     22 C          63.9521   87.7077   14.4516 C.ar    1  UNL1        0.0062
     23 H          63.1147   90.1640   18.3905 H       1  UNL1        0.2922
     24 O          63.4390   86.7072   11.9846 O.3     1  UNL1       -0.4433
     25 C          60.7597   89.0789   10.2680 C.3     1  UNL1        0.2438
     26 C          60.2999   88.2124    9.1332 C.3     1  UNL1        0.1816
     27 O          59.2536   88.7142    8.1827 O.3     1  UNL1       -0.3785
     28 C          60.8865   86.8442    8.9488 C.3     1  UNL1        0.1494
     29 C          60.4267   85.9777    7.8140 C.3     1  UNL1        0.0349
     30 O          61.9328   86.3424    9.8993 O.3     1  UNL1       -0.3177
     31 C          62.3926   87.2090   11.0341 C.3     1  UNL1        0.3333
     32 C          61.8061   88.5771   11.2184 C.3     1  UNL1        0.2803
     33 H          59.0727   88.0357    7.5135 H       1  UNL1        0.2106
     34 O          60.1732   90.4470   10.4523 O.3     1  UNL1       -0.4456
     35 C          58.7913   89.5926   12.4797 C.3     1  UNL1        0.1212
     36 C          59.1269   90.6794   11.5017 C.2     1  UNL1        0.3176
     37 O          58.4161   91.9983   11.5731 O.2     1  UNL1       -0.2501
     38 O          62.2659   89.4436   12.3532 O.3     1  UNL1       -0.4417
     39 C          63.1446   90.6290   12.0835 C.2     1  UNL1        0.3178
     40 C          63.5312   90.9710   10.6751 C.3     1  UNL1        0.1212
     41 O          63.6368   91.4723   13.2222 O.2     1  UNL1       -0.2501
@<TRIPOS>BOND
     1    35    36    1
     2    36    37    2
     3    36    34    1
     4    25    34    1
     5    25    26    1
     6    26    27    1
     7    26    28    1
     8    28    29    1
     9    28    30    1
    10    30    31    1
    11    31    24    1
    12    24     1    1
    13     1     2   ar
    14     2    16    1
    15    16    17   ar
    16    17    18   ar
    17    18    19   ar
    18    19    20    1
    19    19    21   ar
    20    21    22   ar
    21     2     3   ar
    22     3     4   ar
    23     4     5   ar
    24     5     6   ar
    25     6     7    1
    26     6     8   ar
    27     8     9   ar
    28     9    10    1
    29     9    11   ar
    30    11    12   ar
    31    12    13    2
    32    31    32    1
    33    32    38    1
    34    38    39    1
    35    39    40    1
    36    39    41    2
    37    32    25    1
    38    12     1   ar
    39    22    16   ar
    40    11     4   ar
    41    27    33    1
    42    20    23    1
    43     7    14    1
    44    10    15    1
@<TRIPOS>MOLECULE
*****
 41 44 0 0 0
SMALL
GASTEIGER

@<TRIPOS>ATOM
      1 C          63.9103   89.1320   13.1438 C.ar    1  UNL1        0.2144
      2 C          64.3413   88.8009   14.5418 C.ar    1  UNL1        0.1822
      3 O          65.1786   89.7732   15.3187 O.2     1  UNL1       -0.4500
      4 C          65.5849   91.0767   14.6975 C.ar    1  UNL1        0.1545
      5 C          66.4221   92.0490   15.4744 C.ar    1  UNL1        0.0744
      6 C          66.8284   93.3524   14.8532 C.ar    1  UNL1        0.1397
      7 O          67.6657   94.3248   15.6300 O.3     1  UNL1       -0.5053
      8 C          66.3974   93.6836   13.4551 C.ar    1  UNL1        0.0735
      9 C          65.5601   92.7113   12.6782 C.ar    1  UNL1        0.1428
     10 O          65.1291   93.0424   11.2802 O.3     1  UNL1       -0.5052
     11 C          65.1539   91.4078   13.2994 C.ar    1  UNL1        0.1104
     12 C          64.3165   90.4355   12.5226 C.ar    1  UNL1        0.2382
     13 O          63.8855   90.7666   11.1245 O.2     1  UNL1       -0.2830
     14 H          67.9350   94.1180   16.5034 H       1  UNL1        0.2922
     15 H          65.3829   93.8567   10.8921 H       1  UNL1        0.2922
     16 C          63.9350   87.4973   15.1630 C.ar    1  UNL1        0.0379
     17 C          64.2444   86.2057   14.4660 C.ar    1  UNL1        0.0062
     18 C          63.8381   84.9022   15.0872 C.ar    1  UNL1        0.0367
     19 C          63.1223   84.8905   16.4054 C.ar    1  UNL1        0.1337
     20 O          62.7160   83.5869   17.0266 O.3     1  UNL1       -0.5055
     21 C          62.8129   86.1821   17.1023 C.ar    1  UNL1        0.0367
     22 C          63.2192   87.4856   16.4812 C.ar    1  UNL1        0.0062
     23 H          62.9093   82.7801   16.5912 H       1  UNL1        0.2922
     24 O          63.0730   88.1596   12.3669 O.3     1  UNL1       -0.4433
     25 C          60.8234   88.5397    9.1196 C.3     1  UNL1        0.2438
     26 C          59.9238   89.6683    9.5284 C.3     1  UNL1        0.1816
     27 O          58.8741   90.1712    8.5823 O.3     1  UNL1       -0.3785
     28 C          60.0739   90.2940   10.8834 C.3     1  UNL1        0.1494
     29 C          59.1744   91.4225   11.2922 C.3     1  UNL1        0.0349
     30 O          61.1237   89.7911   11.8296 O.3     1  UNL1       -0.3177
     31 C          62.0232   88.6625   11.4207 C.3     1  UNL1        0.3333
     32 C          61.8731   88.0369   10.0658 C.3     1  UNL1        0.2803
     33 H          58.3840   90.8970    8.9992 H       1  UNL1        0.2106
     34 O          60.6732   87.9141    7.7646 O.3     1  UNL1       -0.4456
     35 C          60.5052   85.3893    7.1751 C.3     1  UNL1        0.1212
     36 C          59.8508   86.6706    7.5997 C.2     1  UNL1        0.3176
     37 O          58.3739   86.7082    7.8593 O.2     1  UNL1       -0.2501
     38 O          62.7726   86.9083    9.6570 O.3     1  UNL1       -0.4417
     39 C          62.5546   85.5344   10.2181 C.2     1  UNL1        0.3178
     40 C          63.3239   84.3694    9.6694 C.3     1  UNL1        0.1212
     41 O          61.5673   85.3255   11.3279 O.2     1  UNL1       -0.2501
@<TRIPOS>BOND
     1    35    36    1
     2    36    37    2
     3    36    34    1
     4    25    34    1
     5    25    26    1
     6    26    27    1
     7    26    28    1
     8    28    29    1
     9    28    30    1
    10    30    31    1
    11    31    24    1
    12    24     1    1
    13     1     2   ar
    14     2    16    1
    15    16    17   ar
    16    17    18   ar
    17    18    19   ar
    18    19    20    1
    19    19    21   ar
    20    21    22   ar
    21     2     3   ar
    22     3     4   ar
    23     4     5   ar
    24     5     6   ar
    25     6     7    1
    26     6     8   ar
    27     8     9   ar
    28     9    10    1
    29     9    11   ar
    30    11    12   ar
    31    12    13    2
    32    31    32    1
    33    32    38    1
    34    38    39    1
    35    39    40    1
    36    39    41    2
    37    32    25    1
    38    12     1   ar
    39    22    16   ar
    40    11     4   ar
    41    27    33    1
    42    20    23    1
    43     7    14    1
    44    10    15    1
