@<TRIPOS>MOLECULE
*****
 41 46 0 0 0
SMALL
GASTEIGER

@<TRIPOS>ATOM
      1 C          62.3304   85.9804   11.0223 C.ar    1  UNL1        0.0569
      2 C          62.5685   84.5006   10.9624 C.ar    1  UNL1        0.1237
      3 N          63.4100   84.1183   12.1438 N.ar    1  UNL1       -0.1598
      4 N          63.6920   85.3618   12.9338 N.ar    1  UNL1       -0.1821
      5 C          64.4702   85.5948   14.1948 C.ar    1  UNL1        0.2217
      6 N          64.5812   86.9787   14.7628 N.ar    1  UNL1       -0.1808
      7 C          63.9140   88.1296   14.0697 C.ar    1  UNL1        0.2244
      8 N          63.1358   87.8965   12.8086 N.ar    1  UNL1       -0.1942
      9 C          63.0248   86.5126   12.2407 C.ar    1  UNL1        0.1709
     10 C          59.9787   90.4204    9.6974 C.3     1  UNL1        0.0312
     11 C          60.3614   89.0065    9.3744 C.ar    1  UNL1       -0.0175
     12 C          61.1546   88.2004   10.3598 C.ar    1  UNL1       -0.0040
     13 C          61.5373   86.7865   10.0368 C.ar    1  UNL1        0.0042
     14 C          61.1268   86.1786    8.7284 C.ar    1  UNL1        0.0003
     15 C          60.3336   86.9848    7.7430 C.ar    1  UNL1        0.0042
     16 C          59.9509   88.3987    8.0660 C.ar    1  UNL1        0.0494
     17 C          59.1577   89.2048    7.0805 C.2     1  UNL1        0.2455
     18 O          57.7075   88.8960    6.8538 O.2     1  UNL1       -0.2702
     19 N          59.8148   90.3195    6.3218 N.am    1  UNL1       -0.3025
     20 H          60.7667   90.5221    6.4707 H       1  UNL1        0.1497
     21 C          59.0216   91.1256    5.3363 C.3     1  UNL1        0.0720
     22 C          57.6984   91.5837    4.7989 C.3     1  UNL1        0.0213
     23 C          58.9712   92.0636    4.1669 C.3     1  UNL1        0.0213
     24 N          65.1374   84.4440   14.8879 N.pl3   1  UNL1       -0.3029
     25 H          66.1197   84.3796   14.9009 H       1  UNL1        0.1496
     26 C          64.3079   83.3911   15.5613 C.3     1  UNL1        0.0897
     27 C          63.5093   82.4249   14.7375 C.3     1  UNL1        0.0246
     28 C          64.2049   81.4950   13.7881 C.3     1  UNL1        0.0338
     29 C          63.4063   80.5288   12.9643 C.3     1  UNL1        0.1422
     30 O          61.9120   80.4924   13.0899 O.3     1  UNL1       -0.3538
     31 C          61.2163   81.4223   14.0394 C.3     1  UNL1        0.1422
     32 C          62.0149   82.3885   14.8632 C.3     1  UNL1        0.0338
     33 N          64.0250   89.5135   14.6375 N.pl3   1  UNL1       -0.2807
     34 H          63.5697   89.7373   15.4813 H       1  UNL1        0.1551
     35 C          64.8296   90.5564   13.9199 C.ar    1  UNL1        0.0783
     36 C          66.1948   90.9256   14.4197 C.ar    1  UNL1        0.0170
     37 C          66.9994   91.9685   13.7021 C.ar    1  UNL1        0.0014
     38 C          66.4389   92.6421   12.4848 C.ar    1  UNL1        0.0024
     39 C          65.0737   92.2728   11.9850 C.ar    1  UNL1        0.0309
     40 C          64.2690   91.2299   12.7026 C.ar    1  UNL1        0.1535
     41 F          62.9038   90.8607   12.2028 F       1  UNL1       -0.2029
@<TRIPOS>BOND
     1    10    11    1
     2    11    12   ar
     3    12    13   ar
     4    13     1    1
     5     1     2   ar
     6     2     3   ar
     7     3     4   ar
     8     4     5   ar
     9     5    24    1
    10    24    26    1
    11    26    27    1
    12    27    28    1
    13    28    29    1
    14    29    30    1
    15    30    31    1
    16    31    32    1
    17     5     6   ar
    18     6     7   ar
    19     7    33    1
    20    33    35    1
    21    35    36   ar
    22    36    37   ar
    23    37    38   ar
    24    38    39   ar
    25    39    40   ar
    26    40    41    1
    27     7     8   ar
    28     8     9   ar
    29    13    14   ar
    30    14    15   ar
    31    15    16   ar
    32    16    17    1
    33    17    18    2
    34    17    19   am
    35    19    21    1
    36    21    22    1
    37    22    23    1
    38    16    11   ar
    39    23    21    1
    40     9     1   ar
    41     9     4   ar
    42    32    27    1
    43    40    35   ar
    44    24    25    1
    45    33    34    1
    46    19    20    1
@<TRIPOS>MOLECULE
*****
 41 46 0 0 0
SMALL
GASTEIGER

@<TRIPOS>ATOM
      1 C          64.2308   88.2767   13.9644 C.ar    1  UNL1        0.0569
      2 C          65.1433   88.9777   14.9267 C.ar    1  UNL1        0.1237
      3 N          65.2939   90.3988   14.4709 N.ar    1  UNL1       -0.1598
      4 N          64.4746   90.5761   13.2270 N.ar    1  UNL1       -0.1821
      5 C          64.2419   91.7624   12.3390 C.ar    1  UNL1        0.2217
      6 N          63.3522   91.6370   11.1378 N.ar    1  UNL1       -0.1808
      7 C          62.6951   90.3255   10.8248 C.ar    1  UNL1        0.2244
      8 N          62.9278   89.1392   11.7129 N.ar    1  UNL1       -0.1942
      9 C          63.8175   89.2645   12.9140 C.ar    1  UNL1        0.1709
     10 C          62.6043   83.9366   11.6153 C.3     1  UNL1        0.0312
     11 C          62.9929   84.6699   12.8648 C.ar    1  UNL1       -0.0175
     12 C          63.4176   86.1066   12.7899 C.ar    1  UNL1       -0.0040
     13 C          63.8062   86.8400   14.0394 C.ar    1  UNL1        0.0042
     14 C          63.7701   86.1367   15.3638 C.ar    1  UNL1        0.0003
     15 C          63.3454   84.7000   15.4386 C.ar    1  UNL1        0.0042
     16 C          62.9568   83.9666   14.1892 C.ar    1  UNL1        0.0494
     17 C          62.5322   82.5299   14.2642 C.2     1  UNL1        0.2455
     18 O          63.5512   81.4590   14.5186 O.2     1  UNL1       -0.2702
     19 N          61.0886   82.1642   14.0847 N.am    1  UNL1       -0.3025
     20 H          60.4198   82.8671   13.9177 H       1  UNL1        0.1497
     21 C          60.6639   80.7275   14.1597 C.3     1  UNL1        0.0720
     22 C          61.0058   79.2677   14.1134 C.3     1  UNL1        0.0213
     23 C          59.5865   79.6989   14.3358 C.3     1  UNL1        0.0213
     24 N          64.8989   93.0740   12.6521 N.pl3   1  UNL1       -0.3029
     25 H          64.3608   93.8257   12.9905 H       1  UNL1        0.1496
     26 C          66.3759   93.2402   12.4494 C.3     1  UNL1        0.0897
     27 C          66.9356   93.3432   11.0616 C.3     1  UNL1        0.0246
     28 C          66.6251   94.5416   10.2147 C.3     1  UNL1        0.0338
     29 C          67.1848   94.6446    8.8268 C.3     1  UNL1        0.1422
     30 O          68.0550   93.5492    8.2858 O.3     1  UNL1       -0.3538
     31 C          68.3655   92.3506    9.1327 C.3     1  UNL1        0.1422
     32 C          67.8058   92.2476   10.5206 C.3     1  UNL1        0.0338
     33 N          61.8054   90.2001    9.6237 N.pl3   1  UNL1       -0.2807
     34 H          61.5431   91.0039    9.1194 H       1  UNL1        0.1551
     35 C          61.3154   88.8501    9.1909 C.ar    1  UNL1        0.0783
     36 C          62.0814   87.6173    9.5696 C.ar    1  UNL1        0.0170
     37 C          61.5914   86.2673    9.1369 C.ar    1  UNL1        0.0014
     38 C          60.3353   86.1500    8.3254 C.ar    1  UNL1        0.0024
     39 C          59.5693   87.3828    7.9467 C.ar    1  UNL1        0.0309
     40 C          60.0593   88.7328    8.3795 C.ar    1  UNL1        0.1535
     41 F          59.2932   89.9656    8.0008 F       1  UNL1       -0.2029
@<TRIPOS>BOND
     1    10    11    1
     2    11    12   ar
     3    12    13   ar
     4    13     1    1
     5     1     2   ar
     6     2     3   ar
     7     3     4   ar
     8     4     5   ar
     9     5    24    1
    10    24    26    1
    11    26    27    1
    12    27    28    1
    13    28    29    1
    14    29    30    1
    15    30    31    1
    16    31    32    1
    17     5     6   ar
    18     6     7   ar
    19     7    33    1
    20    33    35    1
    21    35    36   ar
    22    36    37   ar
    23    37    38   ar
    24    38    39   ar
    25    39    40   ar
    26    40    41    1
    27     7     8   ar
    28     8     9   ar
    29    13    14   ar
    30    14    15   ar
    31    15    16   ar
    32    16    17    1
    33    17    18    2
    34    17    19   am
    35    19    21    1
    36    21    22    1
    37    22    23    1
    38    16    11   ar
    39    23    21    1
    40     9     1   ar
    41     9     4   ar
    42    32    27    1
    43    40    35   ar
    44    24    25    1
    45    33    34    1
    46    19    20    1
@<TRIPOS>MOLECULE
*****
 41 46 0 0 0
SMALL
GASTEIGER

@<TRIPOS>ATOM
      1 C          63.4817   86.5165   14.6421 C.ar    1  UNL1        0.0569
      2 C          63.7652   86.9171   16.0595 C.ar    1  UNL1        0.1237
      3 N          63.7833   88.4157   16.1228 N.ar    1  UNL1       -0.1598
      4 N          63.5111   88.9412   14.7445 N.ar    1  UNL1       -0.1821
      5 C          63.4089   90.3369   14.2045 C.ar    1  UNL1        0.2217
      6 N          63.1202   90.5588   12.7493 N.ar    1  UNL1       -0.1808
      7 C          62.9337   89.3850   11.8342 C.ar    1  UNL1        0.2244
      8 N          63.0360   87.9893   12.3742 N.ar    1  UNL1       -0.1942
      9 C          63.3246   87.7674   13.8293 C.ar    1  UNL1        0.1709
     10 C          64.3714   83.0094   10.9126 C.3     1  UNL1        0.0312
     11 C          63.8190   83.3580   12.2629 C.ar    1  UNL1       -0.0175
     12 C          63.9265   84.7629   12.7774 C.ar    1  UNL1       -0.0040
     13 C          63.3741   85.1116   14.1277 C.ar    1  UNL1        0.0042
     14 C          62.7141   84.0553   14.9635 C.ar    1  UNL1        0.0003
     15 C          62.6066   82.6504   14.4490 C.ar    1  UNL1        0.0042
     16 C          63.1590   82.3017   13.0987 C.ar    1  UNL1        0.0494
     17 C          63.0514   80.8968   12.5843 C.2     1  UNL1        0.2455
     18 O          62.9662   79.7500   13.5474 O.2     1  UNL1       -0.2702
     19 N          63.0290   80.6387   11.1069 N.am    1  UNL1       -0.3025
     20 H          63.0850   81.3914   10.4748 H       1  UNL1        0.1497
     21 C          62.9214   79.2338   10.5924 C.3     1  UNL1        0.0720
     22 C          62.4712   77.8146   10.7745 C.3     1  UNL1        0.0213
     23 C          63.1854   78.2196    9.5192 C.3     1  UNL1        0.0213
     24 N          63.5953   91.5106   15.1196 N.pl3   1  UNL1       -0.3029
     25 H          62.9127   92.2191   15.1569 H       1  UNL1        0.1496
     26 C          64.8219   91.6051   15.9780 C.3     1  UNL1        0.0897
     27 C          66.1379   91.9844   15.3663 C.3     1  UNL1        0.0246
     28 C          66.4588   91.5704   13.9608 C.3     1  UNL1        0.0338
     29 C          67.7749   91.9498   13.3491 C.3     1  UNL1        0.1422
     30 O          68.7699   92.7432   14.1429 O.3     1  UNL1       -0.3538
     31 C          68.4490   93.1573   15.5485 C.3     1  UNL1        0.1422
     32 C          67.1330   92.7779   16.1602 C.3     1  UNL1        0.0338
     33 N          62.6451   89.6069   10.3791 N.pl3   1  UNL1       -0.2807
     34 H          63.0139   90.3951    9.9187 H       1  UNL1        0.1551
     35 C          61.7944   88.6280    9.6254 C.ar    1  UNL1        0.0783
     36 C          62.3295   87.2653    9.2986 C.ar    1  UNL1        0.0170
     37 C          61.4789   86.2864    8.5450 C.ar    1  UNL1        0.0014
     38 C          60.0930   86.6701    8.1181 C.ar    1  UNL1        0.0024
     39 C          59.5579   88.0327    8.4449 C.ar    1  UNL1        0.0309
     40 C          60.4086   89.0116    9.1986 C.ar    1  UNL1        0.1535
     41 F          59.8734   90.3743    9.5253 F       1  UNL1       -0.2029
@<TRIPOS>BOND
     1    10    11    1
     2    11    12   ar
     3    12    13   ar
     4    13     1    1
     5     1     2   ar
     6     2     3   ar
     7     3     4   ar
     8     4     5   ar
     9     5    24    1
    10    24    26    1
    11    26    27    1
    12    27    28    1
    13    28    29    1
    14    29    30    1
    15    30    31    1
    16    31    32    1
    17     5     6   ar
    18     6     7   ar
    19     7    33    1
    20    33    35    1
    21    35    36   ar
    22    36    37   ar
    23    37    38   ar
    24    38    39   ar
    25    39    40   ar
    26    40    41    1
    27     7     8   ar
    28     8     9   ar
    29    13    14   ar
    30    14    15   ar
    31    15    16   ar
    32    16    17    1
    33    17    18    2
    34    17    19   am
    35    19    21    1
    36    21    22    1
    37    22    23    1
    38    16    11   ar
    39    23    21    1
    40     9     1   ar
    41     9     4   ar
    42    32    27    1
    43    40    35   ar
    44    24    25    1
    45    33    34    1
    46    19    20    1
@<TRIPOS>MOLECULE
*****
 41 46 0 0 0
SMALL
GASTEIGER

@<TRIPOS>ATOM
      1 C          63.8095   87.3200   13.4463 C.ar    1  UNL1        0.0569
      2 C          64.5739   87.8341   14.6301 C.ar    1  UNL1        0.1237
      3 N          64.6211   89.3305   14.5370 N.ar    1  UNL1       -0.1598
      4 N          63.8859   89.7412   13.2957 N.ar    1  UNL1       -0.1821
      5 C          63.6084   91.0860   12.6921 C.ar    1  UNL1        0.2217
      6 N          62.8293   91.1884   11.4144 N.ar    1  UNL1       -0.1808
      7 C          62.3277   89.9458   10.7403 C.ar    1  UNL1        0.2244
      8 N          62.6052   88.6009   11.3439 N.ar    1  UNL1       -0.1942
      9 C          63.3843   88.4986   12.6216 C.ar    1  UNL1        0.1709
     10 C          64.0960   82.2983   14.7503 C.3     1  UNL1        0.0312
     11 C          63.6642   83.3692   13.7928 C.ar    1  UNL1       -0.0175
     12 C          63.9527   84.8092   14.0982 C.ar    1  UNL1       -0.0040
     13 C          63.5210   85.8801   13.1408 C.ar    1  UNL1        0.0042
     14 C          62.8007   85.5111   11.8779 C.ar    1  UNL1        0.0003
     15 C          62.5122   84.0711   11.5724 C.ar    1  UNL1        0.0042
     16 C          62.9440   83.0001   12.5299 C.ar    1  UNL1        0.0494
     17 C          62.6554   81.5602   12.2244 C.2     1  UNL1        0.2455
     18 O          61.8549   80.7350   13.1878 O.2     1  UNL1       -0.2702
     19 N          63.1674   80.9455   10.9555 N.am    1  UNL1       -0.3025
     20 H          63.6929   81.4871   10.3232 H       1  UNL1        0.1497
     21 C          62.8789   79.5056   10.6500 C.3     1  UNL1        0.0720
     22 C          62.4650   78.1383   11.1072 C.3     1  UNL1        0.0213
     23 C          62.7931   78.3789    9.6636 C.3     1  UNL1        0.0213
     24 N          64.1100   92.3286   13.3663 N.pl3   1  UNL1       -0.3029
     25 H          63.4780   92.9315   13.8205 H       1  UNL1        0.1496
     26 C          65.5745   92.6525   13.3483 C.3     1  UNL1        0.0897
     27 C          66.2002   93.2284   12.1126 C.3     1  UNL1        0.0246
     28 C          66.1180   94.7025   11.8476 C.3     1  UNL1        0.0338
     29 C          66.7437   95.2784   10.6119 C.3     1  UNL1        0.1422
     30 O          67.4515   94.3802    9.6413 O.3     1  UNL1       -0.3538
     31 C          67.5337   92.9060    9.9063 C.3     1  UNL1        0.1422
     32 C          66.9080   92.3301   11.1420 C.3     1  UNL1        0.0338
     33 N          61.5486   90.0481    9.4626 N.pl3   1  UNL1       -0.2807
     34 H          61.4962   90.9076    8.9855 H       1  UNL1        0.1551
     35 C          60.8493   88.8407    8.9119 C.ar    1  UNL1        0.0783
     36 C          61.2474   87.4692    9.3704 C.ar    1  UNL1        0.0170
     37 C          60.5482   86.2618    8.8196 C.ar    1  UNL1        0.0014
     38 C          59.4508   86.4260    7.8103 C.ar    1  UNL1        0.0024
     39 C          59.0527   87.7975    7.3518 C.ar    1  UNL1        0.0309
     40 C          59.7519   89.0049    7.9026 C.ar    1  UNL1        0.1535
     41 F          59.3537   90.3765    7.4440 F       1  UNL1       -0.2029
@<TRIPOS>BOND
     1    10    11    1
     2    11    12   ar
     3    12    13   ar
     4    13     1    1
     5     1     2   ar
     6     2     3   ar
     7     3     4   ar
     8     4     5   ar
     9     5    24    1
    10    24    26    1
    11    26    27    1
    12    27    28    1
    13    28    29    1
    14    29    30    1
    15    30    31    1
    16    31    32    1
    17     5     6   ar
    18     6     7   ar
    19     7    33    1
    20    33    35    1
    21    35    36   ar
    22    36    37   ar
    23    37    38   ar
    24    38    39   ar
    25    39    40   ar
    26    40    41    1
    27     7     8   ar
    28     8     9   ar
    29    13    14   ar
    30    14    15   ar
    31    15    16   ar
    32    16    17    1
    33    17    18    2
    34    17    19   am
    35    19    21    1
    36    21    22    1
    37    22    23    1
    38    16    11   ar
    39    23    21    1
    40     9     1   ar
    41     9     4   ar
    42    32    27    1
    43    40    35   ar
    44    24    25    1
    45    33    34    1
    46    19    20    1
@<TRIPOS>MOLECULE
*****
 41 46 0 0 0
SMALL
GASTEIGER

@<TRIPOS>ATOM
      1 C          63.5153   89.2726   13.3963 C.ar    1  UNL1        0.0569
      2 C          63.4534   88.8278   14.8275 C.ar    1  UNL1        0.1237
      3 N          64.0538   89.9096   15.6755 N.ar    1  UNL1       -0.1598
      4 N          64.4867   91.0231   14.7684 N.ar    1  UNL1       -0.1821
      5 C          65.1409   92.3446   15.0431 C.ar    1  UNL1        0.2217
      6 N          65.4623   93.2725   13.9092 N.ar    1  UNL1       -0.1808
      7 C          65.1295   92.8788   12.5005 C.ar    1  UNL1        0.2244
      8 N          64.4753   91.5572   12.2258 N.ar    1  UNL1       -0.1942
      9 C          64.1539   90.6294   13.3598 C.ar    1  UNL1        0.1709
     10 C          62.4107   84.7257   11.1367 C.3     1  UNL1        0.0312
     11 C          62.4724   86.2234   11.0800 C.ar    1  UNL1       -0.0175
     12 C          62.9630   86.9992   12.2664 C.ar    1  UNL1       -0.0040
     13 C          63.0247   88.4969   12.2099 C.ar    1  UNL1        0.0042
     14 C          62.5959   89.2188   10.9669 C.ar    1  UNL1        0.0003
     15 C          62.1053   88.4429    9.7806 C.ar    1  UNL1        0.0042
     16 C          62.0435   86.9453    9.8371 C.ar    1  UNL1        0.0494
     17 C          61.5530   86.1695    8.6507 C.2     1  UNL1        0.2455
     18 O          60.0829   86.0869    8.3644 O.2     1  UNL1       -0.2702
     19 N          62.5325   85.4764    7.7506 N.am    1  UNL1       -0.3025
     20 H          63.4973   85.5306    7.9385 H       1  UNL1        0.1497
     21 C          62.0419   84.7007    6.5642 C.3     1  UNL1        0.0720
     22 C          60.9489   83.9461    5.8671 C.3     1  UNL1        0.0213
     23 C          62.2852   84.1116    5.2064 C.3     1  UNL1        0.0213
     24 N          65.4737   92.7384   16.4517 N.pl3   1  UNL1       -0.3029
     25 H          64.7755   93.1127   17.0362 H       1  UNL1        0.1496
     26 C          66.8703   92.5617   16.9698 C.3     1  UNL1        0.0897
     27 C          68.0364   92.6614   16.0316 C.3     1  UNL1        0.0246
     28 C          69.0818   93.7159   16.2440 C.3     1  UNL1        0.0338
     29 C          70.2479   93.8157   15.3058 C.3     1  UNL1        0.1422
     30 O          70.3688   92.8609   14.1553 O.3     1  UNL1       -0.3538
     31 C          69.3234   91.8063   13.9429 C.3     1  UNL1        0.1422
     32 C          68.1572   91.7065   14.8811 C.3     1  UNL1        0.0338
     33 N          65.4509   93.8066   11.3666 N.pl3   1  UNL1       -0.2807
     34 H          64.9235   94.6279   11.2380 H       1  UNL1        0.1551
     35 C          66.5760   93.4831   10.4287 C.ar    1  UNL1        0.0783
     36 C          67.3371   92.2001   10.5847 C.ar    1  UNL1        0.0170
     37 C          68.4621   91.8766    9.6468 C.ar    1  UNL1        0.0014
     38 C          68.8260   92.8362    8.5528 C.ar    1  UNL1        0.0024
     39 C          68.0648   94.1192    8.3968 C.ar    1  UNL1        0.0309
     40 C          66.9398   94.4427    9.3347 C.ar    1  UNL1        0.1535
     41 F          66.1786   95.7258    9.1786 F       1  UNL1       -0.2029
@<TRIPOS>BOND
     1    10    11    1
     2    11    12   ar
     3    12    13   ar
     4    13     1    1
     5     1     2   ar
     6     2     3   ar
     7     3     4   ar
     8     4     5   ar
     9     5    24    1
    10    24    26    1
    11    26    27    1
    12    27    28    1
    13    28    29    1
    14    29    30    1
    15    30    31    1
    16    31    32    1
    17     5     6   ar
    18     6     7   ar
    19     7    33    1
    20    33    35    1
    21    35    36   ar
    22    36    37   ar
    23    37    38   ar
    24    38    39   ar
    25    39    40   ar
    26    40    41    1
    27     7     8   ar
    28     8     9   ar
    29    13    14   ar
    30    14    15   ar
    31    15    16   ar
    32    16    17    1
    33    17    18    2
    34    17    19   am
    35    19    21    1
    36    21    22    1
    37    22    23    1
    38    16    11   ar
    39    23    21    1
    40     9     1   ar
    41     9     4   ar
    42    32    27    1
    43    40    35   ar
    44    24    25    1
    45    33    34    1
    46    19    20    1
@<TRIPOS>MOLECULE
*****
 41 46 0 0 0
SMALL
GASTEIGER

@<TRIPOS>ATOM
      1 C          63.0146   89.9792   12.2629 C.ar    1  UNL1        0.0569
      2 C          63.3326   91.4322   12.0694 C.ar    1  UNL1        0.1237
      3 N          63.7657   91.9919   13.3919 N.ar    1  UNL1       -0.1598
      4 N          63.7154   90.8848   14.4028 N.ar    1  UNL1       -0.1821
      5 C          64.0324   90.8487   15.8684 C.ar    1  UNL1        0.2217
      6 N          63.8851   89.5686   16.6363 N.ar    1  UNL1       -0.1808
      7 C          63.4209   88.3246   15.9385 C.ar    1  UNL1        0.2244
      8 N          63.1039   88.3607   14.4728 N.ar    1  UNL1       -0.1942
      9 C          63.2512   89.6408   13.7049 C.ar    1  UNL1        0.1709
     10 C          62.4618   85.1282   10.4844 C.3     1  UNL1        0.0312
     11 C          62.2664   86.6053   10.3115 C.ar    1  UNL1       -0.0175
     12 C          62.7381   87.5537   11.3736 C.ar    1  UNL1       -0.0040
     13 C          62.5428   89.0309   11.2007 C.ar    1  UNL1        0.0042
     14 C          61.8756   89.5597    9.9658 C.ar    1  UNL1        0.0003
     15 C          61.4038   88.6113    8.9036 C.ar    1  UNL1        0.0042
     16 C          61.5992   87.1342    9.0765 C.ar    1  UNL1        0.0494
     17 C          61.1274   86.1859    8.0144 C.2     1  UNL1        0.2455
     18 O          59.6584   85.9846    7.7875 O.2     1  UNL1       -0.2702
     19 N          62.1245   85.4388    7.1792 N.am    1  UNL1       -0.3025
     20 H          63.0887   85.5709    7.3281 H       1  UNL1        0.1497
     21 C          61.6527   84.4905    6.1170 C.3     1  UNL1        0.0720
     22 C          60.7281   83.3978    5.6687 C.3     1  UNL1        0.0213
     23 C          61.7603   83.9407    4.7256 C.3     1  UNL1        0.0213
     24 N          64.4967   92.0927   16.5662 N.pl3   1  UNL1       -0.3029
     25 H          63.8771   92.5925   17.1455 H       1  UNL1        0.1496
     26 C          65.9049   92.5752   16.3814 C.3     1  UNL1        0.0897
     27 C          66.5129   92.6071   15.0105 C.3     1  UNL1        0.0246
     28 C          67.4622   91.5263   14.5856 C.3     1  UNL1        0.0338
     29 C          68.0702   91.5583   13.2147 C.3     1  UNL1        0.1422
     30 O          67.7288   92.6711   12.2687 O.3     1  UNL1       -0.3538
     31 C          66.7794   93.7520   12.6935 C.3     1  UNL1        0.1422
     32 C          66.1715   93.7200   14.0644 C.3     1  UNL1        0.0338
     33 N          63.2736   87.0445   16.7064 N.pl3   1  UNL1       -0.2807
     34 H          63.0949   87.0688   17.6742 H       1  UNL1        0.1551
     35 C          63.3985   85.7273   15.9996 C.ar    1  UNL1        0.0783
     36 C          62.3022   84.7097   16.1107 C.ar    1  UNL1        0.0170
     37 C          62.4271   83.3925   15.4039 C.ar    1  UNL1        0.0014
     38 C          63.6483   83.0930   14.5861 C.ar    1  UNL1        0.0024
     39 C          64.7446   84.1107   14.4750 C.ar    1  UNL1        0.0309
     40 C          64.6197   85.4279   15.1817 C.ar    1  UNL1        0.1535
     41 F          65.7160   86.4456   15.0706 F       1  UNL1       -0.2029
@<TRIPOS>BOND
     1    10    11    1
     2    11    12   ar
     3    12    13   ar
     4    13     1    1
     5     1     2   ar
     6     2     3   ar
     7     3     4   ar
     8     4     5   ar
     9     5    24    1
    10    24    26    1
    11    26    27    1
    12    27    28    1
    13    28    29    1
    14    29    30    1
    15    30    31    1
    16    31    32    1
    17     5     6   ar
    18     6     7   ar
    19     7    33    1
    20    33    35    1
    21    35    36   ar
    22    36    37   ar
    23    37    38   ar
    24    38    39   ar
    25    39    40   ar
    26    40    41    1
    27     7     8   ar
    28     8     9   ar
    29    13    14   ar
    30    14    15   ar
    31    15    16   ar
    32    16    17    1
    33    17    18    2
    34    17    19   am
    35    19    21    1
    36    21    22    1
    37    22    23    1
    38    16    11   ar
    39    23    21    1
    40     9     1   ar
    41     9     4   ar
    42    32    27    1
    43    40    35   ar
    44    24    25    1
    45    33    34    1
    46    19    20    1
@<TRIPOS>MOLECULE
*****
 41 46 0 0 0
SMALL
GASTEIGER

@<TRIPOS>ATOM
      1 C          63.4840   86.1127   15.2281 C.ar    1  UNL1        0.0569
      2 C          63.5856   86.3366   16.7078 C.ar    1  UNL1        0.1237
      3 N          63.6545   87.8154   16.9491 N.ar    1  UNL1       -0.1598
      4 N          63.5954   88.5055   15.6186 N.ar    1  UNL1       -0.1821
      5 C          63.6239   89.9562   15.2382 C.ar    1  UNL1        0.2217
      6 N          63.5471   90.3545   13.7941 N.ar    1  UNL1       -0.1808
      7 C          63.4417   89.3022   12.7304 C.ar    1  UNL1        0.2244
      8 N          63.4132   87.8514   13.1108 N.ar    1  UNL1       -0.1942
      9 C          63.4900   87.4532   14.5549 C.ar    1  UNL1        0.1709
     10 C          61.0347   81.5901   14.4889 C.3     1  UNL1        0.0312
     11 C          62.1677   82.5206   14.1723 C.ar    1  UNL1       -0.0175
     12 C          62.2594   83.8514   14.8584 C.ar    1  UNL1       -0.0040
     13 C          63.3924   84.7820   14.5419 C.ar    1  UNL1        0.0042
     14 C          64.4339   84.3818   13.5393 C.ar    1  UNL1        0.0003
     15 C          64.3422   83.0511   12.8532 C.ar    1  UNL1        0.0042
     16 C          63.2092   82.1205   13.1697 C.ar    1  UNL1        0.0494
     17 C          63.1176   80.7897   12.4836 C.2     1  UNL1        0.2455
     18 O          63.0262   79.5320   13.2957 O.2     1  UNL1       -0.2702
     19 N          63.1174   80.7168   10.9853 N.am    1  UNL1       -0.3025
     20 H          63.1774   81.5424   10.4523 H       1  UNL1        0.1497
     21 C          63.0258   79.3861   10.2992 C.3     1  UNL1        0.0720
     22 C          62.5783   77.9544   10.2956 C.3     1  UNL1        0.0213
     23 C          63.3148   78.5129    9.1143 C.3     1  UNL1        0.0213
     24 N          63.7293   91.0085   16.3019 N.pl3   1  UNL1       -0.3029
     25 H          63.3573   90.8417   17.1980 H       1  UNL1        0.1496
     26 C          64.4014   92.3152   16.0002 C.3     1  UNL1        0.0897
     27 C          65.7985   92.3316   15.4545 C.3     1  UNL1        0.0246
     28 C          66.0263   92.2545   13.9739 C.3     1  UNL1        0.0338
     29 C          67.4234   92.2708   13.4282 C.3     1  UNL1        0.1422
     30 O          68.5927   92.3642   14.3630 O.3     1  UNL1       -0.3538
     31 C          68.3649   92.4413   15.8437 C.3     1  UNL1        0.1422
     32 C          66.9678   92.4249   16.3894 C.3     1  UNL1        0.0338
     33 N          63.3649   89.7005   11.2863 N.pl3   1  UNL1       -0.2807
     34 H          64.0714   90.2614   10.8921 H       1  UNL1        0.1551
     35 C          62.2115   89.2441   10.4428 C.ar    1  UNL1        0.0783
     36 C          61.2271   90.2446    9.9138 C.ar    1  UNL1        0.0170
     37 C          60.0737   89.7883    9.0703 C.ar    1  UNL1        0.0014
     38 C          59.9048   88.3315    8.7557 C.ar    1  UNL1        0.0024
     39 C          60.8893   87.3309    9.2846 C.ar    1  UNL1        0.0309
     40 C          62.0426   87.7873   10.1281 C.ar    1  UNL1        0.1535
     41 F          63.0271   86.7867   10.6571 F       1  UNL1       -0.2029
@<TRIPOS>BOND
     1    10    11    1
     2    11    12   ar
     3    12    13   ar
     4    13     1    1
     5     1     2   ar
     6     2     3   ar
     7     3     4   ar
     8     4     5   ar
     9     5    24    1
    10    24    26    1
    11    26    27    1
    12    27    28    1
    13    28    29    1
    14    29    30    1
    15    30    31    1
    16    31    32    1
    17     5     6   ar
    18     6     7   ar
    19     7    33    1
    20    33    35    1
    21    35    36   ar
    22    36    37   ar
    23    37    38   ar
    24    38    39   ar
    25    39    40   ar
    26    40    41    1
    27     7     8   ar
    28     8     9   ar
    29    13    14   ar
    30    14    15   ar
    31    15    16   ar
    32    16    17    1
    33    17    18    2
    34    17    19   am
    35    19    21    1
    36    21    22    1
    37    22    23    1
    38    16    11   ar
    39    23    21    1
    40     9     1   ar
    41     9     4   ar
    42    32    27    1
    43    40    35   ar
    44    24    25    1
    45    33    34    1
    46    19    20    1
