@<TRIPOS>MOLECULE
*****
 33 37 0 0 0
SMALL
GASTEIGER

@<TRIPOS>ATOM
      1 C          64.1359   84.9240   15.2005 C.3     1  UNL1        0.0730
      2 N          63.8524   86.3369   15.6171 N.3     1  UNL1       -0.2724
      3 C          63.1937   86.7639   16.8953 C.3     1  UNL1        0.0724
      4 C          63.1120   88.2617   16.8968 C.3     1  UNL1        0.0214
      5 C          63.1706   89.7346   16.6189 C.3     1  UNL1        0.0072
      6 C          63.7202   88.7603   15.6194 C.3     1  UNL1        0.0350
      7 C          64.1778   87.5707   14.8286 C.3     1  UNL1        0.0761
      8 C          64.1605   89.7905   14.6220 C.ar    1  UNL1       -0.0215
      9 C          65.4615   90.5121   14.8136 C.ar    1  UNL1       -0.0043
     10 C          65.9018   91.5422   13.8161 C.ar    1  UNL1        0.0035
     11 C          65.0410   91.8508   12.6270 C.ar    1  UNL1        0.0714
     12 C          63.7401   91.1292   12.4354 C.ar    1  UNL1        0.0035
     13 C          63.2998   90.0990   13.4329 C.ar    1  UNL1       -0.0043
     14 C          65.4813   92.8809   11.6296 C.3     1  UNL1        0.4186
     15 F          65.9216   93.9111   10.6322 F       1  UNL1       -0.1659
     16 F          65.9459   93.7657   12.7483 F       1  UNL1       -0.1659
     17 F          65.0168   91.9963   10.5109 F       1  UNL1       -0.1659
     18 C          64.9319   84.6537   13.9582 C.3     1  UNL1        0.0294
     19 C          64.5872   83.4826   13.0866 C.3     1  UNL1        0.0666
     20 S          64.0534   83.7088   11.7032 S.3     1  UNL1       -0.0756
     21 C          61.4445   86.2588   10.3778 C.ar    1  UNL1        0.1680
     22 N          61.1935   86.3286   11.8550 N.ar    1  UNL1       -0.1282
     23 N          62.1402   85.3818   12.5313 N.ar    1  UNL1       -0.1221
     24 C          62.9764   84.7269   11.4721 C.ar    1  UNL1        0.1932
     25 N          62.5464   85.2689   10.1412 N.ar    1  UNL1       -0.2884
     26 C          63.1180   84.8879    8.8077 C.3     1  UNL1        0.1340
     27 C          61.8074   89.2315   10.2014 C.3     1  UNL1        0.0522
     28 C          60.9022   88.5278    9.2343 C.ar    1  UNL1        0.0623
     29 N          60.1784   89.3103    8.1790 N.ar    1  UNL1       -0.2480
     30 C          59.2731   88.6066    7.2120 C.ar    1  UNL1        0.0984
     31 C          59.0917   87.1203    7.3002 C.ar    1  UNL1        0.0208
     32 C          59.8154   86.3377    8.3554 C.ar    1  UNL1        0.0058
     33 C          60.7207   87.0414    9.3225 C.ar    1  UNL1        0.0495
@<TRIPOS>BOND
     1    27    28    1
     2    28    29   ar
     3    29    30   ar
     4    30    31   ar
     5    31    32   ar
     6    32    33   ar
     7    33    21    1
     8    21    22   ar
     9    22    23   ar
    10    23    24   ar
    11    24    20    1
    12    20    19    1
    13    19    18    1
    14    18     1    1
    15     1     2    1
    16     2     3    1
    17     4     3    1
    18     4     5    1
    19     5     6    1
    20     6     8    1
    21     8     9   ar
    22     9    10   ar
    23    10    11   ar
    24    11    14    1
    25    14    15    1
    26    14    16    1
    27    14    17    1
    28    11    12   ar
    29    12    13   ar
    30     6     7    1
    31    24    25   ar
    32    25    26    1
    33    33    28   ar
    34    25    21   ar
    35     7     2    1
    36     6     4    1
    37    13     8   ar
@<TRIPOS>MOLECULE
*****
 33 37 0 0 0
SMALL
GASTEIGER

@<TRIPOS>ATOM
      1 C          64.4026   85.7251   15.4971 C.3     1  UNL1        0.0730
      2 N          64.0928   84.9737   14.2363 N.3     1  UNL1       -0.2724
      3 C          64.4850   83.5575   13.9351 C.3     1  UNL1        0.0724
      4 C          63.9710   83.2150   12.5681 C.3     1  UNL1        0.0214
      5 C          63.3478   83.1665   11.2045 C.3     1  UNL1        0.0072
      6 C          63.2612   84.4196   12.0246 C.3     1  UNL1        0.0350
      7 C          63.3365   85.5064   13.0556 C.3     1  UNL1        0.0761
      8 C          62.4867   85.2143   11.0153 C.ar    1  UNL1       -0.0215
      9 C          62.8169   85.0992    9.5567 C.ar    1  UNL1       -0.0043
     10 C          62.0424   85.8939    8.5474 C.ar    1  UNL1        0.0035
     11 C          60.9378   86.8037    8.9969 C.ar    1  UNL1        0.0714
     12 C          60.6076   86.9188   10.4555 C.ar    1  UNL1        0.0035
     13 C          61.3821   86.1241   11.4648 C.ar    1  UNL1       -0.0043
     14 C          60.1633   87.5984    7.9876 C.3     1  UNL1        0.4186
     15 F          59.3889   88.3931    6.9783 F       1  UNL1       -0.1659
     16 F          59.6294   86.3274    7.3963 F       1  UNL1       -0.1659
     17 F          60.6972   88.8695    8.5787 F       1  UNL1       -0.1659
     18 C          63.3129   86.0091   16.4880 C.3     1  UNL1        0.0294
     19 C          63.2442   87.3460   17.1647 C.3     1  UNL1        0.0666
     20 S          62.5200   88.4831   16.5070 S.3     1  UNL1       -0.0756
     21 C          64.5887   91.1440   14.5821 C.ar    1  UNL1        0.1680
     22 N          64.3453   91.8511   15.8823 N.ar    1  UNL1       -0.1282
     23 N          63.5408   90.9404   16.7617 N.ar    1  UNL1       -0.1221
     24 C          63.2869   89.6704   16.0049 C.ar    1  UNL1        0.1932
     25 N          63.9346   89.7963   14.6578 N.ar    1  UNL1       -0.2884
     26 C          63.9291   88.7569   13.5763 C.3     1  UNL1        0.1340
     27 C          67.5295   91.6835   14.8291 C.3     1  UNL1        0.0522
     28 C          66.8226   91.9587   13.5350 C.ar    1  UNL1        0.0623
     29 N          67.5860   92.5036   12.3645 N.ar    1  UNL1       -0.2480
     30 C          66.8792   92.7788   11.0704 C.ar    1  UNL1        0.0984
     31 C          65.4088   92.5090   10.9469 C.ar    1  UNL1        0.0208
     32 C          64.6454   91.9641   12.1174 C.ar    1  UNL1        0.0058
     33 C          65.3523   91.6889   13.4115 C.ar    1  UNL1        0.0495
@<TRIPOS>BOND
     1    27    28    1
     2    28    29   ar
     3    29    30   ar
     4    30    31   ar
     5    31    32   ar
     6    32    33   ar
     7    33    21    1
     8    21    22   ar
     9    22    23   ar
    10    23    24   ar
    11    24    20    1
    12    20    19    1
    13    19    18    1
    14    18     1    1
    15     1     2    1
    16     2     3    1
    17     4     3    1
    18     4     5    1
    19     5     6    1
    20     6     8    1
    21     8     9   ar
    22     9    10   ar
    23    10    11   ar
    24    11    14    1
    25    14    15    1
    26    14    16    1
    27    14    17    1
    28    11    12   ar
    29    12    13   ar
    30     6     7    1
    31    24    25   ar
    32    25    26    1
    33    33    28   ar
    34    25    21   ar
    35     7     2    1
    36     6     4    1
    37    13     8   ar
@<TRIPOS>MOLECULE
*****
 33 37 0 0 0
SMALL
GASTEIGER

@<TRIPOS>ATOM
      1 C          64.3122   86.9681   14.9689 C.3     1  UNL1        0.0730
      2 N          63.8232   86.0595   13.8801 N.3     1  UNL1       -0.2724
      3 C          64.0603   84.5809   13.7929 C.3     1  UNL1        0.0724
      4 C          63.3950   84.0775   12.5463 C.3     1  UNL1        0.0214
      5 C          62.6473   83.8744   11.2618 C.3     1  UNL1        0.0072
      6 C          62.7467   85.2451   11.8631 C.3     1  UNL1        0.0350
      7 C          63.0113   86.4700   12.6875 C.3     1  UNL1        0.0761
      8 C          61.9555   85.9421   10.7962 C.ar    1  UNL1       -0.0215
      9 C          62.1872   85.6088    9.3522 C.ar    1  UNL1       -0.0043
     10 C          61.3961   86.3059    8.2853 C.ar    1  UNL1        0.0035
     11 C          60.3733   87.3362    8.6625 C.ar    1  UNL1        0.0714
     12 C          60.1416   87.6695   10.1065 C.ar    1  UNL1        0.0035
     13 C          60.9327   86.9725   11.1734 C.ar    1  UNL1       -0.0043
     14 C          59.5822   88.0332    7.5956 C.3     1  UNL1        0.4186
     15 F          58.7911   88.7302    6.5287 F       1  UNL1       -0.1659
     16 F          58.9521   86.7277    7.2098 F       1  UNL1       -0.1659
     17 F          60.2122   89.3387    7.9813 F       1  UNL1       -0.1659
     18 C          64.6893   88.3846   14.6508 C.3     1  UNL1        0.0294
     19 C          63.6415   89.4580   14.6520 C.3     1  UNL1        0.0666
     20 S          63.4362   90.3070   13.4325 S.3     1  UNL1       -0.0756
     21 C          65.6934   93.0585   11.8835 C.ar    1  UNL1        0.1680
     22 N          66.1399   93.0894   13.3151 N.ar    1  UNL1       -0.1282
     23 N          65.3487   92.0625   14.0697 N.ar    1  UNL1       -0.1221
     24 C          64.4132   91.3968   13.1043 C.ar    1  UNL1        0.1932
     25 N          64.6263   92.0124   11.7532 N.ar    1  UNL1       -0.2884
     26 C          63.8998   91.6463   10.4930 C.3     1  UNL1        0.1340
     27 C          67.9339   92.0716   10.1496 C.3     1  UNL1        0.0522
     28 C          67.3416   93.4286    9.9095 C.ar    1  UNL1        0.0623
     29 N          67.8695   94.2922    8.8025 N.ar    1  UNL1       -0.2480
     30 C          67.2772   95.6492    8.5623 C.ar    1  UNL1        0.0984
     31 C          66.1570   96.1426    9.4292 C.ar    1  UNL1        0.0208
     32 C          65.6291   95.2791   10.5362 C.ar    1  UNL1        0.0058
     33 C          66.2214   93.9221   10.7764 C.ar    1  UNL1        0.0495
@<TRIPOS>BOND
     1    27    28    1
     2    28    29   ar
     3    29    30   ar
     4    30    31   ar
     5    31    32   ar
     6    32    33   ar
     7    33    21    1
     8    21    22   ar
     9    22    23   ar
    10    23    24   ar
    11    24    20    1
    12    20    19    1
    13    19    18    1
    14    18     1    1
    15     1     2    1
    16     2     3    1
    17     4     3    1
    18     4     5    1
    19     5     6    1
    20     6     8    1
    21     8     9   ar
    22     9    10   ar
    23    10    11   ar
    24    11    14    1
    25    14    15    1
    26    14    16    1
    27    14    17    1
    28    11    12   ar
    29    12    13   ar
    30     6     7    1
    31    24    25   ar
    32    25    26    1
    33    33    28   ar
    34    25    21   ar
    35     7     2    1
    36     6     4    1
    37    13     8   ar
@<TRIPOS>MOLECULE
*****
 33 37 0 0 0
SMALL
GASTEIGER

@<TRIPOS>ATOM
      1 C          64.1902   84.9187   15.1063 C.3     1  UNL1        0.0730
      2 N          63.8928   86.3300   15.5186 N.3     1  UNL1       -0.2724
      3 C          63.2530   86.7559   16.8068 C.3     1  UNL1        0.0724
      4 C          63.1476   88.2522   16.7994 C.3     1  UNL1        0.0214
      5 C          63.1774   89.7237   16.5100 C.3     1  UNL1        0.0072
      6 C          63.7223   88.7509   15.5066 C.3     1  UNL1        0.0350
      7 C          64.1828   87.5629   14.7151 C.3     1  UNL1        0.0761
      8 C          64.1263   89.7805   14.4934 C.ar    1  UNL1       -0.0215
      9 C          65.3401   90.6296   14.7297 C.ar    1  UNL1       -0.0043
     10 C          65.7441   91.6592   13.7165 C.ar    1  UNL1        0.0035
     11 C          64.9342   91.8397   12.4668 C.ar    1  UNL1        0.0714
     12 C          63.7205   90.9907   12.2305 C.ar    1  UNL1        0.0035
     13 C          63.3165   89.9611   13.2437 C.ar    1  UNL1       -0.0043
     14 C          65.3382   92.8693   11.4536 C.3     1  UNL1        0.4186
     15 F          65.7422   93.8990   10.4403 F       1  UNL1       -0.1659
     16 F          64.6095   92.1062   10.3874 F       1  UNL1       -0.1659
     17 F          66.0670   93.6325   12.5196 F       1  UNL1       -0.1659
     18 C          64.6493   84.6265   13.7085 C.3     1  UNL1        0.0294
     19 C          64.5390   83.2355   13.1582 C.3     1  UNL1        0.0666
     20 S          63.4999   82.9182   12.1241 S.3     1  UNL1       -0.0756
     21 C          62.4021   85.7939    9.7596 C.ar    1  UNL1        0.1680
     22 N          63.2306   84.9560    8.8315 N.ar    1  UNL1       -0.1282
     23 N          63.7427   83.7768    9.6043 N.ar    1  UNL1       -0.1221
     24 C          63.2307   83.8859   11.0100 C.ar    1  UNL1        0.1932
     25 N          62.4021   85.1326   11.1059 N.ar    1  UNL1       -0.2884
     26 C          61.6973   85.6305   12.3328 C.3     1  UNL1        0.1340
     27 C          60.1835   85.7688    7.7403 C.3     1  UNL1        0.0522
     28 C          60.5880   87.0568    8.3942 C.ar    1  UNL1        0.0623
     29 N          59.8832   88.3322    8.0384 N.ar    1  UNL1       -0.2480
     30 C          60.2877   89.6202    8.6923 C.ar    1  UNL1        0.0984
     31 C          61.3969   89.6327    9.7019 C.ar    1  UNL1        0.0208
     32 C          62.1017   88.3574   10.0577 C.ar    1  UNL1        0.0058
     33 C          61.6972   87.0694    9.4038 C.ar    1  UNL1        0.0495
@<TRIPOS>BOND
     1    27    28    1
     2    28    29   ar
     3    29    30   ar
     4    30    31   ar
     5    31    32   ar
     6    32    33   ar
     7    33    21    1
     8    21    22   ar
     9    22    23   ar
    10    23    24   ar
    11    24    20    1
    12    20    19    1
    13    19    18    1
    14    18     1    1
    15     1     2    1
    16     2     3    1
    17     4     3    1
    18     4     5    1
    19     5     6    1
    20     6     8    1
    21     8     9   ar
    22     9    10   ar
    23    10    11   ar
    24    11    14    1
    25    14    15    1
    26    14    16    1
    27    14    17    1
    28    11    12   ar
    29    12    13   ar
    30     6     7    1
    31    24    25   ar
    32    25    26    1
    33    33    28   ar
    34    25    21   ar
    35     7     2    1
    36     6     4    1
    37    13     8   ar
@<TRIPOS>MOLECULE
*****
 33 37 0 0 0
SMALL
GASTEIGER

@<TRIPOS>ATOM
      1 C          63.9739   90.7258   15.2119 C.3     1  UNL1        0.0730
      2 N          63.9384   90.9682   13.7319 N.3     1  UNL1       -0.2724
      3 C          64.7628   91.9731   12.9831 C.3     1  UNL1        0.0724
      4 C          64.4062   91.8743   11.5295 C.3     1  UNL1        0.0214
      5 C          63.8531   91.5513   10.1731 C.3     1  UNL1        0.0072
      6 C          63.3614   90.8083   11.3799 C.3     1  UNL1        0.0350
      7 C          63.0723   90.2483   12.7411 C.3     1  UNL1        0.0761
      8 C          62.3926   89.9331   10.6414 C.ar    1  UNL1       -0.0215
      9 C          62.8275   88.5871   10.1425 C.ar    1  UNL1       -0.0043
     10 C          61.8587   87.7119    9.4040 C.ar    1  UNL1        0.0035
     11 C          60.4548   88.1829    9.1644 C.ar    1  UNL1        0.0714
     12 C          60.0198   89.5290    9.6633 C.ar    1  UNL1        0.0035
     13 C          60.9887   90.4041   10.4018 C.ar    1  UNL1       -0.0043
     14 C          59.4859   87.3078    8.4259 C.3     1  UNL1        0.4186
     15 F          58.5171   86.4326    7.6873 F       1  UNL1       -0.1659
     16 F          58.9025   88.5174    7.7576 F       1  UNL1       -0.1659
     17 F          60.0693   86.0981    9.0940 F       1  UNL1       -0.1659
     18 C          63.1209   89.6502   15.8164 C.3     1  UNL1        0.0294
     19 C          63.6717   88.2661   15.9919 C.3     1  UNL1        0.0666
     20 S          64.4503   87.6225   14.8830 S.3     1  UNL1       -0.0756
     21 C          63.0262   84.3820   13.2903 C.ar    1  UNL1        0.1680
     22 N          62.6704   85.3986   12.2463 N.ar    1  UNL1       -0.1282
     23 N          63.1605   86.7363   12.7159 N.ar    1  UNL1       -0.1221
     24 C          63.8193   86.5464   14.0501 C.ar    1  UNL1        0.1932
     25 N          63.7363   85.0914   14.4051 N.ar    1  UNL1       -0.2884
     26 C          64.2697   84.4571   15.6553 C.3     1  UNL1        0.1340
     27 C          64.2193   82.6938   11.1162 C.3     1  UNL1        0.0522
     28 C          63.3214   82.0697   12.1430 C.ar    1  UNL1        0.0623
     29 N          63.0201   80.6015   12.0829 N.ar    1  UNL1       -0.2480
     30 C          62.1223   79.9775   13.1098 C.ar    1  UNL1        0.0984
     31 C          61.5258   80.8215   14.1968 C.ar    1  UNL1        0.0208
     32 C          61.8271   82.2897   14.2569 C.ar    1  UNL1        0.0058
     33 C          62.7249   82.9138   13.2301 C.ar    1  UNL1        0.0495
@<TRIPOS>BOND
     1    27    28    1
     2    28    29   ar
     3    29    30   ar
     4    30    31   ar
     5    31    32   ar
     6    32    33   ar
     7    33    21    1
     8    21    22   ar
     9    22    23   ar
    10    23    24   ar
    11    24    20    1
    12    20    19    1
    13    19    18    1
    14    18     1    1
    15     1     2    1
    16     2     3    1
    17     4     3    1
    18     4     5    1
    19     5     6    1
    20     6     8    1
    21     8     9   ar
    22     9    10   ar
    23    10    11   ar
    24    11    14    1
    25    14    15    1
    26    14    16    1
    27    14    17    1
    28    11    12   ar
    29    12    13   ar
    30     6     7    1
    31    24    25   ar
    32    25    26    1
    33    33    28   ar
    34    25    21   ar
    35     7     2    1
    36     6     4    1
    37    13     8   ar
@<TRIPOS>MOLECULE
*****
 33 37 0 0 0
SMALL
GASTEIGER

@<TRIPOS>ATOM
      1 C          60.4572   90.4361   10.4418 C.3     1  UNL1        0.0730
      2 N          60.5091   89.1559    9.6616 N.3     1  UNL1       -0.2724
      3 C          59.8187   88.8902    8.3566 C.3     1  UNL1        0.0724
      4 C          60.1433   87.4869    7.9379 C.3     1  UNL1        0.0214
      5 C          60.6337   86.0775    7.7854 C.3     1  UNL1        0.0072
      6 C          61.0343   86.8854    8.9841 C.3     1  UNL1        0.0350
      7 C          61.2603   87.9169   10.0494 C.3     1  UNL1        0.0761
      8 C          61.8693   85.8152    9.6225 C.ar    1  UNL1       -0.0215
      9 C          61.6868   85.4880   11.0750 C.ar    1  UNL1       -0.0043
     10 C          62.5218   84.4178   11.7134 C.ar    1  UNL1        0.0035
     11 C          63.5393   83.6749   10.8992 C.ar    1  UNL1        0.0714
     12 C          63.7217   84.0021    9.4468 C.ar    1  UNL1        0.0035
     13 C          62.8868   85.0722    8.8084 C.ar    1  UNL1       -0.0043
     14 C          64.3742   82.6047   11.5376 C.3     1  UNL1        0.4186
     15 F          65.2092   81.5345   12.1760 F       1  UNL1       -0.1659
     16 F          64.1150   81.7038   10.3666 F       1  UNL1       -0.1659
     17 F          64.6335   83.5055   12.7086 F       1  UNL1       -0.1659
     18 C          61.0774   90.5089   11.8056 C.3     1  UNL1        0.0294
     19 C          62.4313   89.9100   12.0468 C.3     1  UNL1        0.0666
     20 S          63.2834   90.4120   13.1745 S.3     1  UNL1       -0.0756
     21 C          65.6474   93.1799   11.8270 C.ar    1  UNL1        0.1680
     22 N          65.9823   93.1992   13.2890 N.ar    1  UNL1       -0.1282
     23 N          65.1375   92.1647   13.9717 N.ar    1  UNL1       -0.1221
     24 C          64.2805   91.5060   12.9317 C.ar    1  UNL1        0.1932
     25 N          64.5956   92.1334   11.6062 N.ar    1  UNL1       -0.2884
     26 C          63.9690   91.7770   10.2908 C.3     1  UNL1        0.1340
     27 C          67.8688   92.1269   10.1075 C.3     1  UNL1        0.0522
     28 C          67.3679   93.5271    9.9114 C.ar    1  UNL1        0.0623
     29 N          67.9776   94.4008    8.8556 N.ar    1  UNL1       -0.2480
     30 C          67.4767   95.8010    8.6595 C.ar    1  UNL1        0.0984
     31 C          66.3660   96.3275    9.5192 C.ar    1  UNL1        0.0208
     32 C          65.7563   95.4538   10.5750 C.ar    1  UNL1        0.0058
     33 C          66.2572   94.0536   10.7711 C.ar    1  UNL1        0.0495
@<TRIPOS>BOND
     1    27    28    1
     2    28    29   ar
     3    29    30   ar
     4    30    31   ar
     5    31    32   ar
     6    32    33   ar
     7    33    21    1
     8    21    22   ar
     9    22    23   ar
    10    23    24   ar
    11    24    20    1
    12    20    19    1
    13    19    18    1
    14    18     1    1
    15     1     2    1
    16     2     3    1
    17     4     3    1
    18     4     5    1
    19     5     6    1
    20     6     8    1
    21     8     9   ar
    22     9    10   ar
    23    10    11   ar
    24    11    14    1
    25    14    15    1
    26    14    16    1
    27    14    17    1
    28    11    12   ar
    29    12    13   ar
    30     6     7    1
    31    24    25   ar
    32    25    26    1
    33    33    28   ar
    34    25    21   ar
    35     7     2    1
    36     6     4    1
    37    13     8   ar
@<TRIPOS>MOLECULE
*****
 33 37 0 0 0
SMALL
GASTEIGER

@<TRIPOS>ATOM
      1 C          63.6921   90.0701   15.4345 C.3     1  UNL1        0.0730
      2 N          63.6976   90.4523   13.9839 N.3     1  UNL1       -0.2724
      3 C          64.5259   91.5368   13.3611 C.3     1  UNL1        0.0724
      4 C          64.2160   91.5719   11.8938 C.3     1  UNL1        0.0214
      5 C          63.7109   91.3715   10.4957 C.3     1  UNL1        0.0072
      6 C          63.1961   90.5091   11.6100 C.3     1  UNL1        0.0350
      7 C          62.8757   89.8172   12.9017 C.3     1  UNL1        0.0761
      8 C          62.2667   89.6938   10.7607 C.ar    1  UNL1       -0.0215
      9 C          60.9667   90.2800   10.2958 C.ar    1  UNL1       -0.0043
     10 C          60.0372   89.4647    9.4465 C.ar    1  UNL1        0.0035
     11 C          60.4080   88.0629    9.0620 C.ar    1  UNL1        0.0714
     12 C          61.7080   87.4767    9.5269 C.ar    1  UNL1        0.0035
     13 C          62.6374   88.2920   10.3762 C.ar    1  UNL1       -0.0043
     14 C          59.4785   87.2476    8.2127 C.3     1  UNL1        0.4186
     15 F          58.5491   86.4322    7.3634 F       1  UNL1       -0.1659
     16 F          58.8657   88.5065    7.6746 F       1  UNL1       -0.1659
     17 F          60.0913   85.9886    8.7508 F       1  UNL1       -0.1659
     18 C          62.8952   88.8856   15.8950 C.3     1  UNL1        0.0294
     19 C          63.1427   88.2971   17.2523 C.3     1  UNL1        0.0666
     20 S          63.1955   86.8081   17.4259 S.3     1  UNL1       -0.0756
     21 C          62.7951   84.6349   14.2350 C.ar    1  UNL1        0.1680
     22 N          61.4755   84.4046   14.9099 N.ar    1  UNL1       -0.1282
     23 N          61.4648   85.1907   16.1874 N.ar    1  UNL1       -0.1221
     24 C          62.7779   85.9068   16.3020 C.ar    1  UNL1        0.1932
     25 N          63.6000   85.5633   15.0953 N.ar    1  UNL1       -0.2884
     26 C          64.9841   86.0608   14.8007 C.3     1  UNL1        0.1340
     27 C          64.0868   81.9279   14.1760 C.3     1  UNL1        0.0522
     28 C          63.8788   82.6875   12.8995 C.ar    1  UNL1        0.0623
     29 N          64.3166   82.0938   11.5935 N.ar    1  UNL1       -0.2480
     30 C          64.1086   82.8535   10.3169 C.ar    1  UNL1        0.0984
     31 C          63.4627   84.2069   10.3464 C.ar    1  UNL1        0.0208
     32 C          63.0249   84.8007   11.6524 C.ar    1  UNL1        0.0058
     33 C          63.2329   84.0410   12.9289 C.ar    1  UNL1        0.0495
@<TRIPOS>BOND
     1    27    28    1
     2    28    29   ar
     3    29    30   ar
     4    30    31   ar
     5    31    32   ar
     6    32    33   ar
     7    33    21    1
     8    21    22   ar
     9    22    23   ar
    10    23    24   ar
    11    24    20    1
    12    20    19    1
    13    19    18    1
    14    18     1    1
    15     1     2    1
    16     2     3    1
    17     4     3    1
    18     4     5    1
    19     5     6    1
    20     6     8    1
    21     8     9   ar
    22     9    10   ar
    23    10    11   ar
    24    11    14    1
    25    14    15    1
    26    14    16    1
    27    14    17    1
    28    11    12   ar
    29    12    13   ar
    30     6     7    1
    31    24    25   ar
    32    25    26    1
    33    33    28   ar
    34    25    21   ar
    35     7     2    1
    36     6     4    1
    37    13     8   ar
@<TRIPOS>MOLECULE
*****
 33 37 0 0 0
SMALL
GASTEIGER

@<TRIPOS>ATOM
      1 C          62.8785   84.8966    8.9011 C.3     1  UNL1        0.0730
      2 N          63.3215   84.1710   10.1370 N.3     1  UNL1       -0.2724
      3 C          63.9256   82.7988   10.1850 C.3     1  UNL1        0.0724
      4 C          64.2155   82.4700   11.6196 C.3     1  UNL1        0.0214
      5 C          64.3866   82.4261   13.1092 C.3     1  UNL1        0.0072
      6 C          63.7906   83.6390   12.4581 C.3     1  UNL1        0.0350
      7 C          63.2380   84.6903   11.5418 C.3     1  UNL1        0.0761
      8 C          63.5826   84.4118   13.7267 C.ar    1  UNL1       -0.0215
      9 C          62.4260   84.0837   14.6237 C.ar    1  UNL1       -0.0043
     10 C          62.2180   84.8565   15.8924 C.ar    1  UNL1        0.0035
     11 C          63.1666   85.9574   16.2641 C.ar    1  UNL1        0.0714
     12 C          64.3232   86.2855   15.3671 C.ar    1  UNL1        0.0035
     13 C          64.5312   85.5127   14.0984 C.ar    1  UNL1       -0.0043
     14 C          62.9586   86.7302   17.5327 C.3     1  UNL1        0.4186
     15 F          62.7506   87.5029   18.8014 F       1  UNL1       -0.1659
     16 F          63.4826   87.9671   16.8653 F       1  UNL1       -0.1659
     17 F          62.4346   85.4933   18.2002 F       1  UNL1       -0.1659
     18 C          62.7119   86.3871    8.9255 C.3     1  UNL1        0.0294
     19 C          61.4757   86.9939    9.5199 C.3     1  UNL1        0.0666
     20 S          61.4730   88.4351    9.9355 S.3     1  UNL1       -0.0756
     21 C          63.8451   90.2518   12.4131 C.ar    1  UNL1        0.1680
     22 N          63.6154   88.9545   13.1302 N.ar    1  UNL1       -0.1282
     23 N          62.6988   88.1161   12.2894 N.ar    1  UNL1       -0.1221
     24 C          62.3621   88.8952   11.0526 C.ar    1  UNL1        0.1932
     25 N          63.0705   90.2151   11.1290 N.ar    1  UNL1       -0.2884
     26 C          63.0142   91.3067   10.1018 C.3     1  UNL1        0.1340
     27 C          64.1912   90.7239   15.3554 C.3     1  UNL1        0.0522
     28 C          64.8725   91.6226   14.3664 C.ar    1  UNL1        0.0623
     29 N          65.7268   92.7573   14.8485 N.ar    1  UNL1       -0.2480
     30 C          66.4081   93.6560   13.8595 C.ar    1  UNL1        0.0984
     31 C          66.2350   93.4200   12.3884 C.ar    1  UNL1        0.0208
     32 C          65.3807   92.2853   11.9062 C.ar    1  UNL1        0.0058
     33 C          64.6995   91.3866   12.8953 C.ar    1  UNL1        0.0495
@<TRIPOS>BOND
     1    27    28    1
     2    28    29   ar
     3    29    30   ar
     4    30    31   ar
     5    31    32   ar
     6    32    33   ar
     7    33    21    1
     8    21    22   ar
     9    22    23   ar
    10    23    24   ar
    11    24    20    1
    12    20    19    1
    13    19    18    1
    14    18     1    1
    15     1     2    1
    16     2     3    1
    17     4     3    1
    18     4     5    1
    19     5     6    1
    20     6     8    1
    21     8     9   ar
    22     9    10   ar
    23    10    11   ar
    24    11    14    1
    25    14    15    1
    26    14    16    1
    27    14    17    1
    28    11    12   ar
    29    12    13   ar
    30     6     7    1
    31    24    25   ar
    32    25    26    1
    33    33    28   ar
    34    25    21   ar
    35     7     2    1
    36     6     4    1
    37    13     8   ar
@<TRIPOS>MOLECULE
*****
 33 37 0 0 0
SMALL
GASTEIGER

@<TRIPOS>ATOM
      1 C          63.7936   91.9484   10.3176 C.3     1  UNL1        0.0730
      2 N          64.4458   91.8553   11.6652 N.3     1  UNL1       -0.2724
      3 C          65.5489   92.7357   12.1735 C.3     1  UNL1        0.0724
      4 C          65.8944   92.2901   13.5635 C.3     1  UNL1        0.0214
      5 C          66.0145   91.6316   14.9059 C.3     1  UNL1        0.0072
      6 C          65.0048   91.1343   13.9142 C.3     1  UNL1        0.0350
      7 C          64.1096   90.8656   12.7411 C.3     1  UNL1        0.0761
      8 C          64.4575   90.0407   14.7828 C.ar    1  UNL1       -0.0215
      9 C          64.6996   88.6048   14.4228 C.ar    1  UNL1       -0.0043
     10 C          64.1523   87.5112   15.2913 C.ar    1  UNL1        0.0035
     11 C          63.3628   87.8535   16.5200 C.ar    1  UNL1        0.0714
     12 C          63.1207   89.2893   16.8800 C.ar    1  UNL1        0.0035
     13 C          63.6680   90.3830   16.0115 C.ar    1  UNL1       -0.0043
     14 C          62.8155   86.7598   17.3885 C.3     1  UNL1        0.4186
     15 F          62.2682   85.6662   18.2570 F       1  UNL1       -0.1659
     16 F          62.7911   85.8345   16.2081 F       1  UNL1       -0.1659
     17 F          62.8398   87.6851   18.5689 F       1  UNL1       -0.1659
     18 C          62.7186   90.9744    9.9358 C.3     1  UNL1        0.0294
     19 C          61.4925   90.8381   10.7892 C.3     1  UNL1        0.0666
     20 S          60.3651   89.9534   10.3463 S.3     1  UNL1       -0.0756
     21 C          61.5589   86.2651   10.1543 C.ar    1  UNL1        0.1680
     22 N          60.4408   86.2602    9.1545 N.ar    1  UNL1       -0.1282
     23 N          59.8575   87.6412    9.1047 N.ar    1  UNL1       -0.1221
     24 C          60.6151   88.4997   10.0738 C.ar    1  UNL1        0.1932
     25 N          61.6666   87.6491   10.7225 N.ar    1  UNL1       -0.2884
     26 C          62.6528   88.1030   11.7576 C.3     1  UNL1        0.1340
     27 C          63.2170   84.9051    8.0564 C.3     1  UNL1        0.0522
     28 C          63.2474   84.4119    9.4726 C.ar    1  UNL1        0.0623
     29 N          64.1069   83.2387    9.8399 N.ar    1  UNL1       -0.2480
     30 C          64.1374   82.7455   11.2562 C.ar    1  UNL1        0.0984
     31 C          63.3084   83.4254   12.3052 C.ar    1  UNL1        0.0208
     32 C          62.4489   84.5986   11.9379 C.ar    1  UNL1        0.0058
     33 C          62.4184   85.0918   10.5216 C.ar    1  UNL1        0.0495
@<TRIPOS>BOND
     1    27    28    1
     2    28    29   ar
     3    29    30   ar
     4    30    31   ar
     5    31    32   ar
     6    32    33   ar
     7    33    21    1
     8    21    22   ar
     9    22    23   ar
    10    23    24   ar
    11    24    20    1
    12    20    19    1
    13    19    18    1
    14    18     1    1
    15     1     2    1
    16     2     3    1
    17     4     3    1
    18     4     5    1
    19     5     6    1
    20     6     8    1
    21     8     9   ar
    22     9    10   ar
    23    10    11   ar
    24    11    14    1
    25    14    15    1
    26    14    16    1
    27    14    17    1
    28    11    12   ar
    29    12    13   ar
    30     6     7    1
    31    24    25   ar
    32    25    26    1
    33    33    28   ar
    34    25    21   ar
    35     7     2    1
    36     6     4    1
    37    13     8   ar
