@<TRIPOS>MOLECULE
*****
 33 36 0 0 0
SMALL
GASTEIGER

@<TRIPOS>ATOM
      1 C          65.1137   93.6398   10.0369 C.3     1  UNL1        0.1383
      2 N          65.1402   92.8569   11.3162 N.ar    1  UNL1       -0.2455
      3 C          64.4726   91.5156   11.3886 C.ar    1  UNL1        0.2816
      4 O          63.7786   90.9572   10.1817 O.2     1  UNL1       -0.2652
      5 C          64.4990   90.7327   12.6678 C.ar    1  UNL1        0.1342
      6 C          65.1931   91.2911   13.8746 C.ar    1  UNL1        0.0871
      7 C          65.0555   90.2973   14.9897 C.ar    1  UNL1        0.0515
      8 C          64.2764   89.1247   14.4720 C.ar    1  UNL1        0.1142
      9 N          63.9325   89.3938   13.0370 N.ar    1  UNL1       -0.3068
     10 N          65.8607   92.6324   13.8023 N.ar    1  UNL1       -0.2776
     11 C          66.5547   93.1909   15.0092 C.3     1  UNL1        0.1351
     12 C          65.8342   93.4153   12.5230 C.ar    1  UNL1        0.3339
     13 O          66.5018   94.7567   12.4507 O.2     1  UNL1       -0.2462
     14 N          63.9063   87.8983   15.2523 N.pl3   1  UNL1       -0.2932
     15 C          63.1376   88.0284   16.5338 C.3     1  UNL1        0.0922
     16 C          62.7674   86.8019   17.3141 C.3     1  UNL1        0.0228
     17 C          63.1659   85.4454   16.8129 C.3     1  UNL1        0.0177
     18 C          63.9346   85.3153   15.5314 C.3     1  UNL1        0.0575
     19 C          64.6625   84.6831   14.3823 C.3     1  UNL1        0.0173
     20 N          63.8172   83.8694   15.9126 N.3     1  UNL1       -0.3219
     21 C          64.3047   86.5418   14.7511 C.3     1  UNL1        0.1062
     22 H          63.3035   83.7897   16.7902 H       1  UNL1        0.1188
     23 H          64.7493   83.4711   16.0269 H       1  UNL1        0.1188
     24 C          63.1581   88.4837   12.1303 C.3     1  UNL1        0.1348
     25 C          61.9345   88.9904   11.4261 C.ar    1  UNL1        0.0123
     26 C          61.1391   90.1151   12.0198 C.ar    1  UNL1        0.0279
     27 C          59.9155   90.6218   11.3156 C.ar    1  UNL1        0.1399
     28 F          59.1201   91.7465   11.9093 F       1  UNL1       -0.2042
     29 C          59.4872   90.0039   10.0175 C.ar    1  UNL1        0.0303
     30 C          60.2826   88.8793    9.4238 C.ar    1  UNL1        0.0123
     31 C          61.5062   88.3725   10.1280 C.ar    1  UNL1        0.0664
     32 C          62.3016   87.2480    9.5343 C.1     1  UNL1        0.1002
     33 N          63.0970   86.1233    8.9406 N.1     1  UNL1       -0.1908
@<TRIPOS>BOND
     1     1     2    1
     2     2     3   ar
     3     3     4    2
     4     3     5   ar
     5     5     6   ar
     6     6     7   ar
     7     7     8   ar
     8     8    14    1
     9    14    15    1
    10    15    16    1
    11    16    17    1
    12    17    18    1
    13    18    19    1
    14    18    20    1
    15    18    21    1
    16     8     9   ar
    17     9    24    1
    18    24    25    1
    19    25    26   ar
    20    26    27   ar
    21    27    28    1
    22    27    29   ar
    23    29    30   ar
    24    30    31   ar
    25    31    32    1
    26    32    33    3
    27     6    10   ar
    28    10    11    1
    29    10    12   ar
    30    12    13    2
    31    12     2   ar
    32     9     5   ar
    33    31    25   ar
    34    21    14    1
    35    20    22    1
    36    20    23    1
@<TRIPOS>MOLECULE
*****
 33 36 0 0 0
SMALL
GASTEIGER

@<TRIPOS>ATOM
      1 C          62.0571   90.9854   10.7896 C.3     1  UNL1        0.1383
      2 N          61.9228   89.4920   10.7476 N.ar    1  UNL1       -0.2455
      3 C          62.7205   88.6405   11.6902 C.ar    1  UNL1        0.2816
      4 O          63.6526   89.2823   12.6747 O.2     1  UNL1       -0.2652
      5 C          62.5862   87.1471   11.6483 C.ar    1  UNL1        0.1342
      6 C          61.6541   86.5052   10.6637 C.ar    1  UNL1        0.0871
      7 C          61.7303   85.0193   10.8540 C.ar    1  UNL1        0.0515
      8 C          62.7095   84.7428   11.9561 C.ar    1  UNL1        0.1142
      9 N          63.2385   86.0578   12.4470 N.ar    1  UNL1       -0.3068
     10 N          60.8564   87.3568    9.7212 N.ar    1  UNL1       -0.2776
     11 C          59.9243   86.7150    8.7366 C.3     1  UNL1        0.1351
     12 C          60.9907   88.8502    9.7632 C.ar    1  UNL1        0.3339
     13 O          60.1929   89.7018    8.8205 O.2     1  UNL1       -0.2462
     14 N          63.0926   83.3890   12.4761 N.pl3   1  UNL1       -0.2932
     15 C          64.5142   82.9213   12.3747 C.3     1  UNL1        0.0922
     16 C          64.8971   81.5674   12.8948 C.3     1  UNL1        0.0228
     17 C          63.8586   80.6812   13.5162 C.3     1  UNL1        0.0177
     18 C          62.4370   81.1489   13.6176 C.3     1  UNL1        0.0575
     19 C          60.9717   81.1462   13.9382 C.3     1  UNL1        0.0173
     20 N          62.3111   79.7941   14.2489 N.3     1  UNL1       -0.3219
     21 C          62.0540   82.5028   13.0975 C.3     1  UNL1        0.1062
     22 H          63.2222   79.3357   14.2547 H       1  UNL1        0.1188
     23 H          61.6501   79.2302   13.7147 H       1  UNL1        0.1188
     24 C          64.2433   86.2498   13.5440 C.3     1  UNL1        0.1348
     25 C          63.8353   86.9098   14.8277 C.ar    1  UNL1        0.0123
     26 C          63.8176   88.4063   14.9291 C.ar    1  UNL1        0.0279
     27 C          63.4095   89.0663   16.2127 C.ar    1  UNL1        0.1399
     28 F          63.3918   90.5628   16.3141 F       1  UNL1       -0.2042
     29 C          63.0191   88.2299   17.3952 C.ar    1  UNL1        0.0303
     30 C          63.0368   86.7335   17.2938 C.ar    1  UNL1        0.0123
     31 C          63.4449   86.0734   16.0101 C.ar    1  UNL1        0.0664
     32 C          63.4625   84.5770   15.9088 C.1     1  UNL1        0.1002
     33 N          63.4802   83.0805   15.8074 N.1     1  UNL1       -0.1908
@<TRIPOS>BOND
     1     1     2    1
     2     2     3   ar
     3     3     4    2
     4     3     5   ar
     5     5     6   ar
     6     6     7   ar
     7     7     8   ar
     8     8    14    1
     9    14    15    1
    10    15    16    1
    11    16    17    1
    12    17    18    1
    13    18    19    1
    14    18    20    1
    15    18    21    1
    16     8     9   ar
    17     9    24    1
    18    24    25    1
    19    25    26   ar
    20    26    27   ar
    21    27    28    1
    22    27    29   ar
    23    29    30   ar
    24    30    31   ar
    25    31    32    1
    26    32    33    3
    27     6    10   ar
    28    10    11    1
    29    10    12   ar
    30    12    13    2
    31    12     2   ar
    32     9     5   ar
    33    31    25   ar
    34    21    14    1
    35    20    22    1
    36    20    23    1
@<TRIPOS>MOLECULE
*****
 33 36 0 0 0
SMALL
GASTEIGER

@<TRIPOS>ATOM
      1 C          58.9984   90.0562    7.4203 C.3     1  UNL1        0.1383
      2 N          59.7556   88.9606    8.1106 N.ar    1  UNL1       -0.2455
      3 C          60.3283   89.1910    9.4777 C.ar    1  UNL1        0.2816
      4 O          60.1437   90.5168   10.1545 O.2     1  UNL1       -0.2652
      5 C          61.0855   88.0955   10.1680 C.ar    1  UNL1        0.1342
      6 C          61.2701   86.7696    9.4911 C.ar    1  UNL1        0.0871
      7 C          62.0574   85.8848   10.4116 C.ar    1  UNL1        0.0515
      8 C          62.3593   86.6638   11.6574 C.ar    1  UNL1        0.1142
      9 N          61.7587   88.0301   11.5068 N.ar    1  UNL1       -0.3068
     10 N          60.6974   86.5393    8.1240 N.ar    1  UNL1       -0.2776
     11 C          60.8819   85.2134    7.4471 C.3     1  UNL1        0.1351
     12 C          59.9402   87.6349    7.4338 C.ar    1  UNL1        0.3339
     13 O          59.3675   87.4045    6.0666 O.2     1  UNL1       -0.2462
     14 N          63.1272   86.1643   12.8452 N.pl3   1  UNL1       -0.2932
     15 C          63.9904   87.1067   13.6306 C.3     1  UNL1        0.0922
     16 C          64.7582   86.6071   14.8184 C.3     1  UNL1        0.0228
     17 C          64.6628   85.1653   15.2209 C.3     1  UNL1        0.0177
     18 C          63.7996   84.2229   14.4355 C.3     1  UNL1        0.0575
     19 C          63.1212   82.9541   14.0115 C.3     1  UNL1        0.0173
     20 N          64.3318   83.2827   15.4761 N.3     1  UNL1       -0.3219
     21 C          63.0318   84.7225   13.2477 C.3     1  UNL1        0.1062
     22 H          64.9542   83.7893   16.1056 H       1  UNL1        0.1188
     23 H          64.8476   82.5292   15.0216 H       1  UNL1        0.1188
     24 C          61.8205   89.1366   12.5176 C.3     1  UNL1        0.1348
     25 C          62.9410   90.1328   12.4716 C.ar    1  UNL1        0.0123
     26 C          63.3711   90.7177   11.1589 C.ar    1  UNL1        0.0279
     27 C          64.4916   91.7138   11.1129 C.ar    1  UNL1        0.1399
     28 F          64.9217   92.2987    9.8003 F       1  UNL1       -0.2042
     29 C          65.1821   92.1251   12.3795 C.ar    1  UNL1        0.0303
     30 C          64.7520   91.5402   13.6920 C.ar    1  UNL1        0.0123
     31 C          63.6315   90.5441   13.7382 C.ar    1  UNL1        0.0664
     32 C          63.2014   89.9592   15.0507 C.1     1  UNL1        0.1002
     33 N          62.7713   89.3743   16.3633 N.1     1  UNL1       -0.1908
@<TRIPOS>BOND
     1     1     2    1
     2     2     3   ar
     3     3     4    2
     4     3     5   ar
     5     5     6   ar
     6     6     7   ar
     7     7     8   ar
     8     8    14    1
     9    14    15    1
    10    15    16    1
    11    16    17    1
    12    17    18    1
    13    18    19    1
    14    18    20    1
    15    18    21    1
    16     8     9   ar
    17     9    24    1
    18    24    25    1
    19    25    26   ar
    20    26    27   ar
    21    27    28    1
    22    27    29   ar
    23    29    30   ar
    24    30    31   ar
    25    31    32    1
    26    32    33    3
    27     6    10   ar
    28    10    11    1
    29    10    12   ar
    30    12    13    2
    31    12     2   ar
    32     9     5   ar
    33    31    25   ar
    34    21    14    1
    35    20    22    1
    36    20    23    1
@<TRIPOS>MOLECULE
*****
 33 36 0 0 0
SMALL
GASTEIGER

@<TRIPOS>ATOM
      1 C          61.1846   85.8508   10.6444 C.3     1  UNL1        0.1383
      2 N          61.7828   87.1785   11.0044 N.ar    1  UNL1       -0.2455
      3 C          62.7659   87.2767   12.1330 C.ar    1  UNL1        0.2816
      4 O          63.1509   86.0474   12.9016 O.2     1  UNL1       -0.2652
      5 C          63.3641   88.6043   12.4931 C.ar    1  UNL1        0.1342
      6 C          62.9792   89.8336   11.7246 C.ar    1  UNL1        0.0871
      7 C          63.7285   90.9964   12.3045 C.ar    1  UNL1        0.0515
      8 C          64.5766   90.4858   13.4315 C.ar    1  UNL1        0.1142
      9 N          64.3514   89.0074   13.5480 N.ar    1  UNL1       -0.3068
     10 N          61.9961   89.7354   10.5960 N.ar    1  UNL1       -0.2776
     11 C          61.6111   90.9647    9.8274 C.3     1  UNL1        0.1351
     12 C          61.3979   88.4077   10.2360 C.ar    1  UNL1        0.3339
     13 O          60.4147   88.3094    9.1073 O.2     1  UNL1       -0.2462
     14 N          65.4896   91.3090   14.2910 N.pl3   1  UNL1       -0.2932
     15 C          64.9892   91.8799   15.5847 C.3     1  UNL1        0.0922
     16 C          65.9023   92.7031   16.4441 C.3     1  UNL1        0.0228
     17 C          67.3157   92.9554   16.0100 C.3     1  UNL1        0.0177
     18 C          67.8161   92.3845   14.7163 C.3     1  UNL1        0.0575
     19 C          68.7458   92.0604   13.5846 C.3     1  UNL1        0.0173
     20 N          69.0520   93.0951   15.1828 N.3     1  UNL1       -0.3219
     21 C          66.9031   91.5613   13.8568 C.3     1  UNL1        0.1062
     22 H          68.8667   93.5475   16.0779 H       1  UNL1        0.1188
     23 H          69.3195   93.7992   14.4949 H       1  UNL1        0.1188
     24 C          64.9997   88.0926   14.5446 C.3     1  UNL1        0.1348
     25 C          64.1603   87.1463   15.3507 C.ar    1  UNL1        0.0123
     26 C          64.2632   85.6680   15.1180 C.ar    1  UNL1        0.0279
     27 C          63.4239   84.7216   15.9241 C.ar    1  UNL1        0.1399
     28 F          63.5268   83.2434   15.6914 F       1  UNL1       -0.2042
     29 C          62.4817   85.2535   16.9631 C.ar    1  UNL1        0.0303
     30 C          62.3788   86.7317   17.1959 C.ar    1  UNL1        0.0123
     31 C          63.2181   87.6781   16.3897 C.ar    1  UNL1        0.0664
     32 C          63.1152   89.1563   16.6225 C.1     1  UNL1        0.1002
     33 N          63.0124   90.6346   16.8552 N.1     1  UNL1       -0.1908
@<TRIPOS>BOND
     1     1     2    1
     2     2     3   ar
     3     3     4    2
     4     3     5   ar
     5     5     6   ar
     6     6     7   ar
     7     7     8   ar
     8     8    14    1
     9    14    15    1
    10    15    16    1
    11    16    17    1
    12    17    18    1
    13    18    19    1
    14    18    20    1
    15    18    21    1
    16     8     9   ar
    17     9    24    1
    18    24    25    1
    19    25    26   ar
    20    26    27   ar
    21    27    28    1
    22    27    29   ar
    23    29    30   ar
    24    30    31   ar
    25    31    32    1
    26    32    33    3
    27     6    10   ar
    28    10    11    1
    29    10    12   ar
    30    12    13    2
    31    12     2   ar
    32     9     5   ar
    33    31    25   ar
    34    21    14    1
    35    20    22    1
    36    20    23    1
@<TRIPOS>MOLECULE
*****
 33 36 0 0 0
SMALL
GASTEIGER

@<TRIPOS>ATOM
      1 C          60.9415   85.4296    9.1229 C.3     1  UNL1        0.1383
      2 N          61.2347   86.7285    9.8137 N.ar    1  UNL1       -0.2455
      3 C          62.2334   86.7745   10.9319 C.ar    1  UNL1        0.2816
      4 O          62.9389   85.5217   11.3594 O.2     1  UNL1       -0.2652
      5 C          62.5265   88.0733   11.6226 C.ar    1  UNL1        0.1342
      6 C          61.8210   89.3261   11.1951 C.ar    1  UNL1        0.0871
      7 C          62.3123   90.4517   12.0562 C.ar    1  UNL1        0.0515
      8 C          63.3215   89.8946   13.0160 C.ar    1  UNL1        0.1142
      9 N          63.4539   88.4247   12.7480 N.ar    1  UNL1       -0.3068
     10 N          60.8223   89.2801   10.0769 N.ar    1  UNL1       -0.2776
     11 C          60.1167   90.5328    9.6493 C.3     1  UNL1        0.1351
     12 C          60.5292   87.9812    9.3861 C.ar    1  UNL1        0.3339
     13 O          59.5304   87.9351    8.2678 O.2     1  UNL1       -0.2462
     14 N          64.0674   90.6711   14.0604 N.pl3   1  UNL1       -0.2932
     15 C          63.4842   90.8343   15.4327 C.3     1  UNL1        0.0922
     16 C          64.2302   91.6108   16.4771 C.3     1  UNL1        0.0228
     17 C          65.5592   92.2240   16.1492 C.3     1  UNL1        0.0177
     18 C          66.1424   92.0607   14.7769 C.3     1  UNL1        0.0575
     19 C          67.1002   92.1817   13.6288 C.3     1  UNL1        0.0173
     20 N          67.2210   92.8792   15.4225 N.3     1  UNL1       -0.3219
     21 C          65.3965   91.2843   13.7325 C.3     1  UNL1        0.1062
     22 H          66.9638   93.0785   16.3893 H       1  UNL1        0.1188
     23 H          67.3337   93.7557   14.9131 H       1  UNL1        0.1188
     24 C          64.3554   87.4732   13.4773 C.3     1  UNL1        0.1348
     25 C          63.9363   86.9098   14.8028 C.ar    1  UNL1        0.0123
     26 C          63.5916   87.8320   15.9346 C.ar    1  UNL1        0.0279
     27 C          63.1725   87.2686   17.2600 C.ar    1  UNL1        0.1399
     28 F          62.8278   88.1908   18.3918 F       1  UNL1       -0.2042
     29 C          63.0980   85.7830   17.4538 C.ar    1  UNL1        0.0303
     30 C          63.4426   84.8609   16.3221 C.ar    1  UNL1        0.0123
     31 C          63.8618   85.4242   14.9966 C.ar    1  UNL1        0.0664
     32 C          64.2064   84.5021   13.8649 C.1     1  UNL1        0.1002
     33 N          64.5511   83.5799   12.7332 N.1     1  UNL1       -0.1908
@<TRIPOS>BOND
     1     1     2    1
     2     2     3   ar
     3     3     4    2
     4     3     5   ar
     5     5     6   ar
     6     6     7   ar
     7     7     8   ar
     8     8    14    1
     9    14    15    1
    10    15    16    1
    11    16    17    1
    12    17    18    1
    13    18    19    1
    14    18    20    1
    15    18    21    1
    16     8     9   ar
    17     9    24    1
    18    24    25    1
    19    25    26   ar
    20    26    27   ar
    21    27    28    1
    22    27    29   ar
    23    29    30   ar
    24    30    31   ar
    25    31    32    1
    26    32    33    3
    27     6    10   ar
    28    10    11    1
    29    10    12   ar
    30    12    13    2
    31    12     2   ar
    32     9     5   ar
    33    31    25   ar
    34    21    14    1
    35    20    22    1
    36    20    23    1
@<TRIPOS>MOLECULE
*****
 33 36 0 0 0
SMALL
GASTEIGER

@<TRIPOS>ATOM
      1 C          61.4499   90.9714   10.0542 C.3     1  UNL1        0.1383
      2 N          61.4504   89.4719   10.0942 N.ar    1  UNL1       -0.2455
      3 C          62.3065   88.7485   11.0911 C.ar    1  UNL1        0.2816
      4 O          63.1621   89.5246   12.0480 O.2     1  UNL1       -0.2652
      5 C          62.3069   87.2490   11.1311 C.ar    1  UNL1        0.1342
      6 C          61.4513   86.4730   10.1742 C.ar    1  UNL1        0.0871
      7 C          61.6572   85.0126   10.4478 C.ar    1  UNL1        0.0515
      8 C          62.6401   84.8861   11.5738 C.ar    1  UNL1        0.1142
      9 N          63.0416   86.2683   11.9961 N.ar    1  UNL1       -0.3068
     10 N          60.5952   87.1964    9.1773 N.ar    1  UNL1       -0.2776
     11 C          59.7396   86.4204    8.2203 C.3     1  UNL1        0.1351
     12 C          60.5948   88.6959    9.1373 C.ar    1  UNL1        0.3339
     13 O          59.7387   89.4193    8.1404 O.2     1  UNL1       -0.2462
     14 N          63.1346   83.6027   12.1725 N.pl3   1  UNL1       -0.2932
     15 C          64.5507   83.1646   11.9427 C.3     1  UNL1        0.0922
     16 C          65.0451   81.8812   12.5414 C.3     1  UNL1        0.0228
     17 C          64.1236   81.0359   13.3698 C.3     1  UNL1        0.0177
     18 C          62.7076   81.4741   13.5996 C.3     1  UNL1        0.0575
     19 C          61.2926   81.4655   14.0974 C.3     1  UNL1        0.0173
     20 N          62.7106   80.1877   14.3712 N.3     1  UNL1       -0.3219
     21 C          62.2131   82.7575   13.0009 C.3     1  UNL1        0.1062
     22 H          63.6329   79.7563   14.3092 H       1  UNL1        0.1188
     23 H          62.0124   79.5552   13.9803 H       1  UNL1        0.1188
     24 C          64.0082   86.6097   13.0912 C.3     1  UNL1        0.1348
     25 C          63.6071   86.4374   14.5262 C.ar    1  UNL1        0.0123
     26 C          63.1005   85.1108   15.0093 C.ar    1  UNL1        0.0279
     27 C          62.6993   84.9385   16.4443 C.ar    1  UNL1        0.1399
     28 F          62.1928   83.6118   16.9274 F       1  UNL1       -0.2042
     29 C          62.8048   86.0929   17.3964 C.ar    1  UNL1        0.0303
     30 C          63.3113   87.4195   16.9134 C.ar    1  UNL1        0.0123
     31 C          63.7125   87.5918   15.4783 C.ar    1  UNL1        0.0664
     32 C          64.2191   88.9184   14.9952 C.1     1  UNL1        0.1002
     33 N          64.7257   90.2451   14.5122 N.1     1  UNL1       -0.1908
@<TRIPOS>BOND
     1     1     2    1
     2     2     3   ar
     3     3     4    2
     4     3     5   ar
     5     5     6   ar
     6     6     7   ar
     7     7     8   ar
     8     8    14    1
     9    14    15    1
    10    15    16    1
    11    16    17    1
    12    17    18    1
    13    18    19    1
    14    18    20    1
    15    18    21    1
    16     8     9   ar
    17     9    24    1
    18    24    25    1
    19    25    26   ar
    20    26    27   ar
    21    27    28    1
    22    27    29   ar
    23    29    30   ar
    24    30    31   ar
    25    31    32    1
    26    32    33    3
    27     6    10   ar
    28    10    11    1
    29    10    12   ar
    30    12    13    2
    31    12     2   ar
    32     9     5   ar
    33    31    25   ar
    34    21    14    1
    35    20    22    1
    36    20    23    1
