@<TRIPOS>MOLECULE
*****
 36 40 0 0 0
SMALL
GASTEIGER

@<TRIPOS>ATOM
      1 C          61.2663   87.8925    9.6912 C.3     1  UNL1        0.2246
      2 C          61.5668   86.5485    9.0967 C.2     1  UNL1        0.0436
      3 C          60.6683   85.9784    8.0394 C.2     1  UNL1        0.0288
      4 C          59.4694   86.7521    7.5768 C.2     1  UNL1        0.0896
      5 N          59.1689   88.0960    8.1713 N.am    1  UNL1       -0.1770
      6 C          60.0674   88.6662    9.2286 C.2     1  UNL1        0.2627
      7 O          59.7669   90.0101    9.8232 O.2     1  UNL1       -0.2719
      8 C          64.0586   87.3045   14.8818 C.3     1  UNL1        0.0312
      9 C          64.1919   88.5692   14.0864 C.2     1  UNL1        0.0136
     10 C          65.0365   89.6954   14.6042 C.2     1  UNL1        0.0107
     11 C          65.1698   90.9601   13.8089 C.2     1  UNL1        0.0510
     12 C          64.4584   91.0987   12.4956 C.2     1  UNL1        0.0613
     13 C          63.6138   89.9725   11.9777 C.2     1  UNL1        0.2246
     14 N          62.8005   89.8211   10.7264 N.2     1  UNL1       -0.0378
     15 C          62.1647   88.4627   10.7485 C.2     1  UNL1        0.3605
     16 N          62.5849   87.7746   12.0134 N.2     1  UNL1       -0.0547
     17 C          63.4805   88.7078   12.7731 C.3     1  UNL1        0.2976
     18 N          66.0145   92.0864   14.3268 N.pl3   1  UNL1       -0.3027
     19 C          66.1243   93.3622   13.5457 C.3     1  UNL1        0.1231
     20 C          66.9689   94.4884   14.0635 C.3     1  UNL1        0.1636
     21 O          67.7038   94.3388   15.3626 O.3     1  UNL1       -0.3501
     22 C          67.5941   93.0629   16.1437 C.3     1  UNL1        0.1636
     23 C          66.7494   91.9367   15.6259 C.3     1  UNL1        0.1231
     24 N          62.7656   85.7748    9.5593 N.pl3   1  UNL1       -0.3329
     25 H          63.5557   86.2506    9.9036 H       1  UNL1        0.1466
     26 C          62.7607   84.2761    9.4972 C.3     1  UNL1        0.1211
     27 C          63.5871   83.4827   10.4655 C.3     1  UNL1        0.1522
     28 O          64.9182   82.9354   10.0429 O.3     1  UNL1       -0.3783
     29 H          65.0920   83.1834    9.1214 H       1  UNL1        0.2109
     30 C          63.0823   83.2365   11.8564 C.ar    1  UNL1        0.0067
     31 C          63.1443   84.3299   12.8813 C.ar    1  UNL1       -0.0018
     32 C          62.6396   84.0837   14.2722 C.ar    1  UNL1        0.0006
     33 C          62.0727   82.7440   14.6382 C.ar    1  UNL1        0.0114
     34 C          62.0107   81.6506   13.6133 C.ar    1  UNL1        0.0574
     35 CL         61.4438   80.3109   13.9793 Cl      1  UNL1       -0.0823
     36 C          62.5155   81.8968   12.2224 C.ar    1  UNL1        0.0095
@<TRIPOS>BOND
     1     8     9    1
     2     9    10    2
     3    10    11    1
     4    11    18    1
     5    18    19    1
     6    19    20    1
     7    20    21    1
     8    21    22    1
     9    22    23    1
    10    11    12    2
    11    12    13    1
    12    13    14    2
    13    14    15    1
    14    15     1    1
    15     1     2    1
    16     2    24    1
    17    24    26    1
    18    26    27    1
    19    27    28    1
    20    27    30    1
    21    30    31   ar
    22    31    32   ar
    23    32    33   ar
    24    33    34   ar
    25    34    35    1
    26    34    36   ar
    27     2     3    2
    28     3     4    1
    29     4     5    2
    30     5     6    1
    31     6     7    2
    32    15    16    2
    33    16    17    1
    34    17     9    1
    35    23    18    1
    36    17    13    1
    37     6     1    1
    38    36    30   ar
    39    24    25    1
    40    28    29    1
@<TRIPOS>MOLECULE
*****
 36 40 0 0 0
SMALL
GASTEIGER

@<TRIPOS>ATOM
      1 C          64.0295   89.8912   14.9332 C.3     1  UNL1        0.2246
      2 C          64.8350   91.0133   14.3483 C.2     1  UNL1        0.0436
      3 C          65.1444   92.2253   15.1763 C.2     1  UNL1        0.0288
      4 C          64.6483   92.3152   16.5890 C.2     1  UNL1        0.0896
      5 N          63.8428   91.1932   17.1739 N.am    1  UNL1       -0.1770
      6 C          63.5334   89.9812   16.3459 C.2     1  UNL1        0.2627
      7 O          62.7279   88.8591   16.9308 O.2     1  UNL1       -0.2719
      8 C          62.0112   87.5305    9.8896 C.3     1  UNL1        0.0312
      9 C          62.4936   86.6475   11.0021 C.2     1  UNL1        0.0136
     10 C          62.4669   85.1564   10.8414 C.2     1  UNL1        0.0107
     11 C          62.9492   84.2735   11.9538 C.2     1  UNL1        0.0510
     12 C          63.4584   84.8816   13.2271 C.2     1  UNL1        0.0613
     13 C          63.4852   86.3727   13.3877 C.2     1  UNL1        0.2246
     14 N          63.9285   87.2525   14.5188 N.2     1  UNL1       -0.0378
     15 C          63.7201   88.6792   14.1054 C.2     1  UNL1        0.3605
     16 N          63.1480   88.6812   12.7188 N.2     1  UNL1       -0.0547
     17 C          63.0028   87.2557   12.2752 C.3     1  UNL1        0.2976
     18 N          62.9225   82.7823   11.7931 N.pl3   1  UNL1       -0.3027
     19 C          62.5116   81.9112   12.9431 C.3     1  UNL1        0.1231
     20 C          62.4848   80.4201   12.7825 C.3     1  UNL1        0.1636
     21 O          62.8689   79.8000   11.4718 O.3     1  UNL1       -0.3501
     22 C          63.2798   80.6710   10.3218 C.3     1  UNL1        0.1636
     23 C          63.3066   82.1621   10.4824 C.3     1  UNL1        0.1231
     24 N          65.3311   90.9234   12.9357 N.pl3   1  UNL1       -0.3329
     25 H          65.8863   90.1598   12.6566 H       1  UNL1        0.1466
     26 C          64.9814   91.9970   11.9481 C.3     1  UNL1        0.1211
     27 C          65.8287   93.2309   11.8503 C.3     1  UNL1        0.1522
     28 O          65.8265   94.2327   12.9667 O.3     1  UNL1       -0.3783
     29 H          65.2287   93.9326   13.6693 H       1  UNL1        0.2109
     30 C          66.6782   93.4630   10.6360 C.ar    1  UNL1        0.0067
     31 C          67.5530   92.3633   10.1113 C.ar    1  UNL1       -0.0018
     32 C          68.4025   92.5954    8.8970 C.ar    1  UNL1        0.0006
     33 C          68.3772   93.9273    8.2074 C.ar    1  UNL1        0.0114
     34 C          67.5024   95.0269    8.7322 C.ar    1  UNL1        0.0574
     35 CL         67.4771   96.3588    8.0426 Cl      1  UNL1       -0.0823
     36 C          66.6529   94.7948    9.9464 C.ar    1  UNL1        0.0095
@<TRIPOS>BOND
     1     8     9    1
     2     9    10    2
     3    10    11    1
     4    11    18    1
     5    18    19    1
     6    19    20    1
     7    20    21    1
     8    21    22    1
     9    22    23    1
    10    11    12    2
    11    12    13    1
    12    13    14    2
    13    14    15    1
    14    15     1    1
    15     1     2    1
    16     2    24    1
    17    24    26    1
    18    26    27    1
    19    27    28    1
    20    27    30    1
    21    30    31   ar
    22    31    32   ar
    23    32    33   ar
    24    33    34   ar
    25    34    35    1
    26    34    36   ar
    27     2     3    2
    28     3     4    1
    29     4     5    2
    30     5     6    1
    31     6     7    2
    32    15    16    2
    33    16    17    1
    34    17     9    1
    35    23    18    1
    36    17    13    1
    37     6     1    1
    38    36    30   ar
    39    24    25    1
    40    28    29    1
@<TRIPOS>MOLECULE
*****
 36 40 0 0 0
SMALL
GASTEIGER

@<TRIPOS>ATOM
      1 C          64.2535   90.4652   14.9710 C.3     1  UNL1        0.2246
      2 C          65.2623   91.4939   14.5538 C.2     1  UNL1        0.0436
      3 C          65.6794   92.5679   15.5143 C.2     1  UNL1        0.0288
      4 C          65.0878   92.6132   16.8920 C.2     1  UNL1        0.0896
      5 N          64.0790   91.5846   17.3092 N.am    1  UNL1       -0.1770
      6 C          63.6618   90.5105   16.3487 C.2     1  UNL1        0.2627
      7 O          62.6530   89.4818   16.7659 O.2     1  UNL1       -0.2719
      8 C          63.7310   84.7142   13.6527 C.3     1  UNL1        0.0312
      9 C          63.2820   85.7612   12.6769 C.2     1  UNL1        0.0136
     10 C          62.6963   85.3545   11.3572 C.2     1  UNL1        0.0107
     11 C          62.2473   86.4014   10.3814 C.2     1  UNL1        0.0510
     12 C          62.3841   87.8551   10.7252 C.2     1  UNL1        0.0613
     13 C          62.9699   88.2618   12.0448 C.2     1  UNL1        0.2246
     14 N          63.2279   89.6068   12.6566 N.2     1  UNL1       -0.0378
     15 C          63.8363   89.3911   14.0106 C.2     1  UNL1        0.3605
     16 N          63.9543   87.9128   14.2356 N.2     1  UNL1       -0.0547
     17 C          63.4188   87.2148   13.0207 C.3     1  UNL1        0.2976
     18 N          61.6615   85.9947    9.0617 N.pl3   1  UNL1       -0.3027
     19 C          60.2563   86.3862    8.7123 C.3     1  UNL1        0.1231
     20 C          59.6705   85.9796    7.3927 C.3     1  UNL1        0.1636
     21 O          60.4900   85.1814    6.4224 O.3     1  UNL1       -0.3501
     22 C          61.8952   84.7899    6.7718 C.3     1  UNL1        0.1636
     23 C          62.4810   85.1966    8.0914 C.3     1  UNL1        0.1231
     24 N          65.8539   91.4486   13.1762 N.pl3   1  UNL1       -0.3329
     25 H          66.5888   90.8247   12.9764 H       1  UNL1        0.1466
     26 C          65.3260   92.3538   12.1030 C.3     1  UNL1        0.1211
     27 C          66.0105   93.6577   11.8179 C.3     1  UNL1        0.1522
     28 O          65.9618   94.7667   12.8267 O.3     1  UNL1       -0.3783
     29 H          65.4523   94.4782   13.6001 H       1  UNL1        0.2109
     30 C          66.7437   93.8526   10.5239 C.ar    1  UNL1        0.0067
     31 C          66.5955   95.1372    9.7639 C.ar    1  UNL1       -0.0018
     32 C          67.3287   95.3321    8.4699 C.ar    1  UNL1        0.0006
     33 C          68.2101   94.2422    7.9358 C.ar    1  UNL1        0.0114
     34 C          68.3583   92.9576    8.6958 C.ar    1  UNL1        0.0574
     35 CL         69.2397   91.8677    8.1616 Cl      1  UNL1       -0.0823
     36 C          67.6251   92.7627    9.9898 C.ar    1  UNL1        0.0095
@<TRIPOS>BOND
     1     8     9    1
     2     9    10    2
     3    10    11    1
     4    11    18    1
     5    18    19    1
     6    19    20    1
     7    20    21    1
     8    21    22    1
     9    22    23    1
    10    11    12    2
    11    12    13    1
    12    13    14    2
    13    14    15    1
    14    15     1    1
    15     1     2    1
    16     2    24    1
    17    24    26    1
    18    26    27    1
    19    27    28    1
    20    27    30    1
    21    30    31   ar
    22    31    32   ar
    23    32    33   ar
    24    33    34   ar
    25    34    35    1
    26    34    36   ar
    27     2     3    2
    28     3     4    1
    29     4     5    2
    30     5     6    1
    31     6     7    2
    32    15    16    2
    33    16    17    1
    34    17     9    1
    35    23    18    1
    36    17    13    1
    37     6     1    1
    38    36    30   ar
    39    24    25    1
    40    28    29    1
@<TRIPOS>MOLECULE
*****
 36 40 0 0 0
SMALL
GASTEIGER

@<TRIPOS>ATOM
      1 C          64.1603   90.1071   12.8271 C.3     1  UNL1        0.2246
      2 C          63.5806   90.6219   11.5429 C.2     1  UNL1        0.0436
      3 C          63.8819   92.0203   11.0915 C.2     1  UNL1        0.0288
      4 C          64.7628   92.9039   11.9242 C.2     1  UNL1        0.0896
      5 N          65.3424   92.3891   13.2083 N.am    1  UNL1       -0.1770
      6 C          65.0412   90.9907   13.6597 C.2     1  UNL1        0.2627
      7 O          65.6208   90.4759   14.9438 O.2     1  UNL1       -0.2719
      8 C          63.3566   86.2217   17.2250 C.3     1  UNL1        0.0312
      9 C          63.2457   85.7838   15.7946 C.2     1  UNL1        0.0136
     10 C          62.9294   84.3538   15.4704 C.2     1  UNL1        0.0107
     11 C          62.8185   83.9159   14.0402 C.2     1  UNL1        0.0510
     12 C          63.0239   84.9080   12.9339 C.2     1  UNL1        0.0613
     13 C          63.3402   86.3379   13.2581 C.2     1  UNL1        0.2246
     14 N          63.5923   87.5325   12.3867 N.2     1  UNL1       -0.0378
     15 C          63.8591   88.7087   13.2785 C.2     1  UNL1        0.3605
     16 N          63.7718   88.2411   14.7011 N.2     1  UNL1       -0.0547
     17 C          63.4511   86.7758   14.6885 C.3     1  UNL1        0.2976
     18 N          62.5022   82.4858   13.7159 N.pl3   1  UNL1       -0.3027
     19 C          61.4295   81.7640   14.4764 C.3     1  UNL1        0.1231
     20 C          61.1132   80.3340   14.1522 C.3     1  UNL1        0.1636
     21 O          61.8696   79.6259   13.0676 O.3     1  UNL1       -0.3501
     22 C          62.9423   80.3477   12.3072 C.3     1  UNL1        0.1636
     23 C          63.2586   81.7777   12.6314 C.3     1  UNL1        0.1231
     24 N          62.6998   89.7384   10.7102 N.pl3   1  UNL1       -0.3329
     25 H          63.0997   89.1175   10.0593 H       1  UNL1        0.1466
     26 C          61.2095   89.8008   10.8693 C.3     1  UNL1        0.1211
     27 C          60.4011   88.5373   10.8639 C.3     1  UNL1        0.1522
     28 O          59.4977   88.2200   12.0185 O.3     1  UNL1       -0.3783
     29 H          59.5541   88.9294   12.6776 H       1  UNL1        0.2109
     30 C          60.4962   87.5912    9.7039 C.ar    1  UNL1        0.0067
     31 C          59.3411   87.4456    8.7581 C.ar    1  UNL1       -0.0018
     32 C          59.4361   86.4994    7.5981 C.ar    1  UNL1        0.0006
     33 C          60.6863   85.6987    7.3838 C.ar    1  UNL1        0.0114
     34 C          61.8414   85.8443    8.3295 C.ar    1  UNL1        0.0574
     35 CL         63.0916   85.0436    8.1152 Cl      1  UNL1       -0.0823
     36 C          61.7464   86.7905    9.4895 C.ar    1  UNL1        0.0095
@<TRIPOS>BOND
     1     8     9    1
     2     9    10    2
     3    10    11    1
     4    11    18    1
     5    18    19    1
     6    19    20    1
     7    20    21    1
     8    21    22    1
     9    22    23    1
    10    11    12    2
    11    12    13    1
    12    13    14    2
    13    14    15    1
    14    15     1    1
    15     1     2    1
    16     2    24    1
    17    24    26    1
    18    26    27    1
    19    27    28    1
    20    27    30    1
    21    30    31   ar
    22    31    32   ar
    23    32    33   ar
    24    33    34   ar
    25    34    35    1
    26    34    36   ar
    27     2     3    2
    28     3     4    1
    29     4     5    2
    30     5     6    1
    31     6     7    2
    32    15    16    2
    33    16    17    1
    34    17     9    1
    35    23    18    1
    36    17    13    1
    37     6     1    1
    38    36    30   ar
    39    24    25    1
    40    28    29    1
@<TRIPOS>MOLECULE
*****
 36 40 0 0 0
SMALL
GASTEIGER

@<TRIPOS>ATOM
      1 C          63.9073   90.8865   14.3551 C.3     1  UNL1        0.2246
      2 C          63.6999   90.6292   15.8182 C.2     1  UNL1        0.0436
      3 C          64.4632   91.4249   16.8352 C.2     1  UNL1        0.0288
      4 C          65.4339   92.4778   16.3891 C.2     1  UNL1        0.0896
      5 N          65.6413   92.7352   14.9260 N.am    1  UNL1       -0.1770
      6 C          64.8780   91.9395   13.9090 C.2     1  UNL1        0.2627
      7 O          65.0854   92.1968   12.4459 O.2     1  UNL1       -0.2719
      8 C          58.7269   89.1861   12.0406 C.3     1  UNL1        0.0312
      9 C          60.0177   88.6818   11.4664 C.2     1  UNL1        0.0136
     10 C          60.0020   87.7406   10.2986 C.2     1  UNL1        0.0107
     11 C          61.2927   87.2363    9.7244 C.2     1  UNL1        0.0510
     12 C          62.5992   87.6732   10.3181 C.2     1  UNL1        0.0613
     13 C          62.6148   88.6144   11.4859 C.2     1  UNL1        0.2246
     14 N          63.7396   89.2152   12.2757 N.2     1  UNL1       -0.0378
     15 C          63.1440   90.0908   13.3380 C.2     1  UNL1        0.3605
     16 N          61.6511   90.0312   13.2048 N.2     1  UNL1       -0.0547
     17 C          61.3241   89.1187   12.0601 C.3     1  UNL1        0.2976
     18 N          61.2770   86.2951    8.5565 N.pl3   1  UNL1       -0.3027
     19 C          60.0121   86.0875    7.7774 C.3     1  UNL1        0.1231
     20 C          59.9964   85.1463    6.6096 C.3     1  UNL1        0.1636
     21 O          61.2457   84.4127    6.2208 O.3     1  UNL1       -0.3501
     22 C          62.5106   84.6203    6.9998 C.3     1  UNL1        0.1636
     23 C          62.5263   85.5615    8.1677 C.3     1  UNL1        0.1231
     24 N          62.7292   89.5762   16.2644 N.pl3   1  UNL1       -0.3329
     25 H          61.7701   89.6751   16.0657 H       1  UNL1        0.1466
     26 C          63.2199   88.3727   17.0132 C.3     1  UNL1        0.1211
     27 C          62.6254   87.0236   16.7368 C.3     1  UNL1        0.1522
     28 O          61.2904   86.6594   17.3158 O.3     1  UNL1       -0.3783
     29 H          60.9513   87.4025   17.8390 H       1  UNL1        0.2109
     30 C          63.3658   86.0387   15.8814 C.ar    1  UNL1        0.0067
     31 C          64.6594   86.4327   15.2323 C.ar    1  UNL1       -0.0018
     32 C          65.3998   85.4478   14.3769 C.ar    1  UNL1        0.0006
     33 C          64.8466   84.0689   14.1705 C.ar    1  UNL1        0.0114
     34 C          63.5530   83.6749   14.8196 C.ar    1  UNL1        0.0574
     35 CL         62.9998   82.2960   14.6132 Cl      1  UNL1       -0.0823
     36 C          62.8126   84.6598   15.6750 C.ar    1  UNL1        0.0095
@<TRIPOS>BOND
     1     8     9    1
     2     9    10    2
     3    10    11    1
     4    11    18    1
     5    18    19    1
     6    19    20    1
     7    20    21    1
     8    21    22    1
     9    22    23    1
    10    11    12    2
    11    12    13    1
    12    13    14    2
    13    14    15    1
    14    15     1    1
    15     1     2    1
    16     2    24    1
    17    24    26    1
    18    26    27    1
    19    27    28    1
    20    27    30    1
    21    30    31   ar
    22    31    32   ar
    23    32    33   ar
    24    33    34   ar
    25    34    35    1
    26    34    36   ar
    27     2     3    2
    28     3     4    1
    29     4     5    2
    30     5     6    1
    31     6     7    2
    32    15    16    2
    33    16    17    1
    34    17     9    1
    35    23    18    1
    36    17    13    1
    37     6     1    1
    38    36    30   ar
    39    24    25    1
    40    28    29    1
@<TRIPOS>MOLECULE
*****
 36 40 0 0 0
SMALL
GASTEIGER

@<TRIPOS>ATOM
      1 C          61.1994   88.4679   10.4387 C.3     1  UNL1        0.2246
      2 C          61.3350   87.0127   10.1011 C.2     1  UNL1        0.0436
      3 C          60.4359   86.3947    9.0717 C.2     1  UNL1        0.0288
      4 C          59.4012   87.2318    8.3798 C.2     1  UNL1        0.0896
      5 N          59.2657   88.6870    8.7173 N.am    1  UNL1       -0.1770
      6 C          60.1648   89.3050    9.7468 C.2     1  UNL1        0.2627
      7 O          60.0292   90.7602   10.0843 O.2     1  UNL1       -0.2719
      8 C          62.3790   89.6993   16.1111 C.3     1  UNL1        0.0312
      9 C          63.3198   90.1358   15.0274 C.2     1  UNL1        0.0136
     10 C          64.5687   90.8893   15.3770 C.2     1  UNL1        0.0107
     11 C          65.5094   91.3258   14.2934 C.2     1  UNL1        0.0510
     12 C          65.2013   91.0088   12.8600 C.2     1  UNL1        0.0613
     13 C          63.9523   90.2553   12.5103 C.2     1  UNL1        0.2246
     14 N          63.3880   89.8024   11.1964 N.2     1  UNL1       -0.0378
     15 C          62.0985   89.0860   11.4681 C.2     1  UNL1        0.3605
     16 N          61.8658   89.0961   12.9499 N.2     1  UNL1       -0.0547
     17 C          63.0115   89.8188   13.5941 C.3     1  UNL1        0.2976
     18 N          66.7585   92.0794   14.6431 N.pl3   1  UNL1       -0.3027
     19 C          68.0147   91.8562   13.8543 C.3     1  UNL1        0.1231
     20 C          69.2637   92.6097   14.2039 C.3     1  UNL1        0.1636
     21 O          69.2565   93.5864   15.3423 O.3     1  UNL1       -0.3501
     22 C          68.0002   93.8096   16.1311 C.3     1  UNL1        0.1636
     23 C          66.7513   93.0561   15.7815 C.3     1  UNL1        0.1231
     24 N          62.3696   86.1755   10.7929 N.pl3   1  UNL1       -0.3329
     25 H          62.7387   86.4649   11.6585 H       1  UNL1        0.1466
     26 C          62.8419   84.8972   10.1660 C.3     1  UNL1        0.1211
     27 C          63.0363   83.6740   11.0121 C.3     1  UNL1        0.1522
     28 O          63.0204   82.3141   10.3793 O.3     1  UNL1       -0.3783
     29 H          62.8745   82.4034    9.4245 H       1  UNL1        0.2109
     30 C          63.2466   83.8107   12.4910 C.ar    1  UNL1        0.0067
     31 C          63.0058   82.6378   13.3944 C.ar    1  UNL1       -0.0018
     32 C          63.2161   82.7745   14.8733 C.ar    1  UNL1        0.0006
     33 C          63.6673   84.0841   15.4488 C.ar    1  UNL1        0.0114
     34 C          63.9081   85.2571   14.5454 C.ar    1  UNL1        0.0574
     35 CL         64.3593   86.5667   15.1209 Cl      1  UNL1       -0.0823
     36 C          63.6978   85.1204   13.0665 C.ar    1  UNL1        0.0095
@<TRIPOS>BOND
     1     8     9    1
     2     9    10    2
     3    10    11    1
     4    11    18    1
     5    18    19    1
     6    19    20    1
     7    20    21    1
     8    21    22    1
     9    22    23    1
    10    11    12    2
    11    12    13    1
    12    13    14    2
    13    14    15    1
    14    15     1    1
    15     1     2    1
    16     2    24    1
    17    24    26    1
    18    26    27    1
    19    27    28    1
    20    27    30    1
    21    30    31   ar
    22    31    32   ar
    23    32    33   ar
    24    33    34   ar
    25    34    35    1
    26    34    36   ar
    27     2     3    2
    28     3     4    1
    29     4     5    2
    30     5     6    1
    31     6     7    2
    32    15    16    2
    33    16    17    1
    34    17     9    1
    35    23    18    1
    36    17    13    1
    37     6     1    1
    38    36    30   ar
    39    24    25    1
    40    28    29    1
@<TRIPOS>MOLECULE
*****
 36 40 0 0 0
SMALL
GASTEIGER

@<TRIPOS>ATOM
      1 C          63.6742   89.4707   14.7590 C.3     1  UNL1        0.2246
      2 C          64.2443   90.7005   14.1166 C.2     1  UNL1        0.0436
      3 C          64.4853   91.9324   14.9377 C.2     1  UNL1        0.0288
      4 C          64.1563   91.9347   16.4012 C.2     1  UNL1        0.0896
      5 N          63.5862   90.7049   17.0436 N.am    1  UNL1       -0.1770
      6 C          63.3451   89.4730   16.2224 C.2     1  UNL1        0.2627
      7 O          62.7750   88.2432   16.8648 O.2     1  UNL1       -0.2719
      8 C          62.0398   86.9860    9.6365 C.3     1  UNL1        0.0312
      9 C          62.4466   86.1311   10.7999 C.2     1  UNL1        0.0136
     10 C          62.4412   84.6367   10.6706 C.2     1  UNL1        0.0107
     11 C          62.8480   83.7817   11.8339 C.2     1  UNL1        0.0510
     12 C          63.2602   84.4211   13.1268 C.2     1  UNL1        0.0613
     13 C          63.2655   85.9155   13.2561 C.2     1  UNL1        0.2246
     14 N          63.6205   86.8229   14.3965 N.2     1  UNL1       -0.0378
     15 C          63.4331   88.2388   13.9379 C.2     1  UNL1        0.3605
     16 N          62.9623   88.2064   12.5141 N.2     1  UNL1       -0.0547
     17 C          62.8587   86.7705   12.0927 C.3     1  UNL1        0.2976
     18 N          62.8426   82.2872   11.7046 N.pl3   1  UNL1       -0.3027
     19 C          63.2058   81.6462   10.3980 C.3     1  UNL1        0.1231
     20 C          63.2004   80.1519   10.2686 C.3     1  UNL1        0.1636
     21 O          62.8319   79.2985   11.4458 O.3     1  UNL1       -0.3501
     22 C          62.4687   79.9395   12.7524 C.3     1  UNL1        0.1636
     23 C          62.4741   81.4339   12.8818 C.3     1  UNL1        0.1231
     24 N          64.5733   90.6983   12.6531 N.pl3   1  UNL1       -0.3329
     25 H          64.8697   89.8672   12.2165 H       1  UNL1        0.1466
     26 C          64.4508   91.9624   11.8550 C.3     1  UNL1        0.1211
     27 C          65.6209   92.8942   11.7416 C.3     1  UNL1        0.1522
     28 O          65.5762   94.0400   10.7747 O.3     1  UNL1       -0.3783
     29 H          64.7272   94.0344   10.3056 H       1  UNL1        0.2109
     30 C          66.8355   92.6801   12.5953 C.ar    1  UNL1        0.0067
     31 C          67.9451   91.7940   12.1121 C.ar    1  UNL1       -0.0018
     32 C          69.1598   91.5799   12.9657 C.ar    1  UNL1        0.0006
     33 C          69.2649   92.2519   14.3026 C.ar    1  UNL1        0.0114
     34 C          68.1553   93.1380   14.7858 C.ar    1  UNL1        0.0574
     35 CL         68.2604   93.8100   16.1227 Cl      1  UNL1       -0.0823
     36 C          66.9406   93.3521   13.9322 C.ar    1  UNL1        0.0095
@<TRIPOS>BOND
     1     8     9    1
     2     9    10    2
     3    10    11    1
     4    11    18    1
     5    18    19    1
     6    19    20    1
     7    20    21    1
     8    21    22    1
     9    22    23    1
    10    11    12    2
    11    12    13    1
    12    13    14    2
    13    14    15    1
    14    15     1    1
    15     1     2    1
    16     2    24    1
    17    24    26    1
    18    26    27    1
    19    27    28    1
    20    27    30    1
    21    30    31   ar
    22    31    32   ar
    23    32    33   ar
    24    33    34   ar
    25    34    35    1
    26    34    36   ar
    27     2     3    2
    28     3     4    1
    29     4     5    2
    30     5     6    1
    31     6     7    2
    32    15    16    2
    33    16    17    1
    34    17     9    1
    35    23    18    1
    36    17    13    1
    37     6     1    1
    38    36    30   ar
    39    24    25    1
    40    28    29    1
