@<TRIPOS>MOLECULE
*****
 35 39 0 0 0
SMALL
GASTEIGER

@<TRIPOS>ATOM
      1 C          59.5751   95.0433   -1.8973 C.ar    1  UNL1        0.1060
      2 C          58.2073   94.7209   -1.3726 C.ar    1  UNL1        0.0215
      3 C          58.0565   93.9762   -0.0793 C.ar    1  UNL1        0.0383
      4 C          59.2735   93.5540    0.6894 C.ar    1  UNL1        0.1410
      5 C          60.6412   93.8764    0.1647 C.ar    1  UNL1        0.0700
      6 C          60.7920   94.6211   -1.1287 C.ar    1  UNL1        0.0242
      7 C          61.8581   93.4542    0.9333 C.2     1  UNL1        0.1795
      8 O          63.2259   93.7766    0.4086 O.2     1  UNL1       -0.2911
      9 C          61.7073   92.7095    2.2267 C.3     1  UNL1        0.1092
     10 C          60.3396   92.3871    2.7515 C.3     1  UNL1        0.1436
     11 C          61.5565   91.9649    3.5201 C.3     1  UNL1        0.0620
     12 C          61.4057   91.2203    4.8134 C.3     1  UNL1        0.0985
     13 N          60.0379   90.8979    5.3381 N.am    1  UNL1       -0.2640
     14 C          59.8871   90.1533    6.6315 C.2     1  UNL1        0.3039
     15 O          58.5194   89.8309    7.1563 O.2     1  UNL1       -0.2526
     16 N          61.1041   89.7311    7.4001 N.am    1  UNL1       -0.2904
     17 C          58.8210   91.3201    4.5695 C.3     1  UNL1        0.0985
     18 C          58.9718   92.0647    3.2762 C.3     1  UNL1        0.0620
     19 O          59.1226   92.8094    1.9828 O.3     1  UNL1       -0.4819
     20 H          62.0017   89.9427    7.0557 H       1  UNL1        0.1509
     21 C          60.9533   88.9864    8.6936 C.3     1  UNL1        0.0734
     22 C          59.7327   88.9719    9.5653 C.3     1  UNL1        0.0200
     23 C          60.0216   88.1021   10.7528 C.3     1  UNL1        0.0061
     24 C          61.4207   87.5791   10.6149 C.3     1  UNL1        0.0240
     25 C          61.9965   88.1256    9.3422 C.3     1  UNL1        0.0240
     26 C          62.1211   86.6693   11.5801 C.ar    1  UNL1       -0.0224
     27 C          61.8637   85.1921   11.5400 C.ar    1  UNL1       -0.0043
     28 C          62.5640   84.2823   12.5052 C.ar    1  UNL1       -0.0003
     29 C          63.5218   84.8497   13.5106 C.ar    1  UNL1       -0.0000
     30 C          63.7792   86.3269   13.5507 C.ar    1  UNL1       -0.0003
     31 C          63.0788   87.2367   12.5854 C.ar    1  UNL1       -0.0043
     32 C          59.8767   96.5325   -4.4841 C.3     1  UNL1        0.1816
     33 S          59.7259   95.7879   -3.1907 S.O2    1  UNL1        0.0105
     34 O          61.0450   96.3294   -2.7251 O.2     1  UNL1       -0.1686
     35 O          58.4069   95.2464   -3.6562 O.2     1  UNL1       -0.1686
@<TRIPOS>BOND
     1    32    33    1
     2    33    34    2
     3    33    35    2
     4    33     1    1
     5     1     2   ar
     6     2     3   ar
     7     3     4   ar
     8     4     5   ar
     9     5     6   ar
    10     5     7    1
    11     7     8    2
    12     7     9    1
    13     9    10    1
    14    10    11    1
    15    11    12    1
    16    12    13    1
    17    13    14   am
    18    14    15    2
    19    14    16   am
    20    21    16    1
    21    21    22    1
    22    22    23    1
    23    23    24    1
    24    24    26    1
    25    26    27   ar
    26    27    28   ar
    27    28    29   ar
    28    29    30   ar
    29    30    31   ar
    30    24    25    1
    31    13    17    1
    32    17    18    1
    33    10    19    1
    34     6     1   ar
    35    18    10    1
    36    19     4    1
    37    25    21    1
    38    31    26   ar
    39    16    20    1
@<TRIPOS>MOLECULE
*****
 35 39 0 0 0
SMALL
GASTEIGER

@<TRIPOS>ATOM
      1 C          63.0531   95.5382   -4.6290 C.ar    1  UNL1        0.1060
      2 C          64.2995   95.2128   -3.8606 C.ar    1  UNL1        0.0215
      3 C          64.2016   94.5541   -2.5166 C.ar    1  UNL1        0.0383
      4 C          62.8571   94.2206   -1.9409 C.ar    1  UNL1        0.1410
      5 C          61.6107   94.5459   -2.7094 C.ar    1  UNL1        0.0700
      6 C          61.7087   95.2047   -4.0534 C.ar    1  UNL1        0.0242
      7 C          60.2663   94.2125   -2.1338 C.2     1  UNL1        0.1795
      8 O          59.0198   94.5378   -2.9022 O.2     1  UNL1       -0.2911
      9 C          60.1683   93.5537   -0.7897 C.3     1  UNL1        0.1092
     10 C          61.4147   93.2283   -0.0213 C.3     1  UNL1        0.1436
     11 C          60.0703   92.8949    0.5543 C.3     1  UNL1        0.0620
     12 C          59.9724   92.2361    1.8983 C.3     1  UNL1        0.0985
     13 N          61.2188   91.9108    2.6667 N.am    1  UNL1       -0.2640
     14 C          61.1208   91.2520    4.0108 C.2     1  UNL1        0.3039
     15 O          62.3673   90.9267    4.7792 O.2     1  UNL1       -0.2526
     16 N          59.7764   90.9186    4.5864 N.am    1  UNL1       -0.2904
     17 C          62.5632   92.2442    2.0911 C.3     1  UNL1        0.0985
     18 C          62.6612   92.9030    0.7471 C.3     1  UNL1        0.0620
     19 O          62.7592   93.5618   -0.5969 O.3     1  UNL1       -0.4819
     20 H          58.9583   91.1321    4.0820 H       1  UNL1        0.1509
     21 C          59.6784   90.2597    5.9304 C.3     1  UNL1        0.0734
     22 C          58.6994   89.1920    6.3196 C.3     1  UNL1        0.0200
     23 C          58.9581   88.8253    7.7510 C.3     1  UNL1        0.0061
     24 C          60.0970   89.6666    8.2463 C.3     1  UNL1        0.0240
     25 C          60.5422   90.5530    7.1212 C.3     1  UNL1        0.0240
     26 C          60.6871   89.6280    9.6248 C.ar    1  UNL1       -0.0224
     27 C          59.8781   90.0905   10.8002 C.ar    1  UNL1       -0.0043
     28 C          60.4682   90.0519   12.1787 C.ar    1  UNL1       -0.0003
     29 C          61.8674   89.5510   12.3818 C.ar    1  UNL1       -0.0000
     30 C          62.6765   89.0885   11.2064 C.ar    1  UNL1       -0.0003
     31 C          62.0863   89.1271    9.8279 C.ar    1  UNL1       -0.0043
     32 C          63.2489   96.8557   -7.3171 C.3     1  UNL1        0.1816
     33 S          63.1510   96.1969   -5.9730 S.O2    1  UNL1        0.0105
     34 O          64.5836   95.7654   -6.0801 O.2     1  UNL1       -0.1686
     35 O          61.7185   96.6285   -5.8659 O.2     1  UNL1       -0.1686
@<TRIPOS>BOND
     1    32    33    1
     2    33    34    2
     3    33    35    2
     4    33     1    1
     5     1     2   ar
     6     2     3   ar
     7     3     4   ar
     8     4     5   ar
     9     5     6   ar
    10     5     7    1
    11     7     8    2
    12     7     9    1
    13     9    10    1
    14    10    11    1
    15    11    12    1
    16    12    13    1
    17    13    14   am
    18    14    15    2
    19    14    16   am
    20    21    16    1
    21    21    22    1
    22    22    23    1
    23    23    24    1
    24    24    26    1
    25    26    27   ar
    26    27    28   ar
    27    28    29   ar
    28    29    30   ar
    29    30    31   ar
    30    24    25    1
    31    13    17    1
    32    17    18    1
    33    10    19    1
    34     6     1   ar
    35    18    10    1
    36    19     4    1
    37    25    21    1
    38    31    26   ar
    39    16    20    1
@<TRIPOS>MOLECULE
*****
 35 39 0 0 0
SMALL
GASTEIGER

@<TRIPOS>ATOM
      1 C          60.3143   95.5259   -4.4196 C.ar    1  UNL1        0.1060
      2 C          61.7233   95.2156   -4.0094 C.ar    1  UNL1        0.0215
      3 C          61.9917   94.5506   -2.6919 C.ar    1  UNL1        0.0383
      4 C          60.8510   94.1960   -1.7846 C.ar    1  UNL1        0.1410
      5 C          59.4420   94.5063   -2.1948 C.ar    1  UNL1        0.0700
      6 C          59.1736   95.1713   -3.5124 C.ar    1  UNL1        0.0242
      7 C          58.3013   94.1517   -1.2876 C.2     1  UNL1        0.1795
      8 O          56.8923   94.4620   -1.6978 O.2     1  UNL1       -0.2911
      9 C          58.5697   93.4867    0.0299 C.3     1  UNL1        0.1092
     10 C          59.9787   93.1763    0.4402 C.3     1  UNL1        0.1436
     11 C          58.8381   92.8217    1.3474 C.3     1  UNL1        0.0620
     12 C          59.1065   92.1567    2.6649 C.3     1  UNL1        0.0985
     13 N          60.5155   91.8464    3.0751 N.am    1  UNL1       -0.2640
     14 C          60.7839   91.1814    4.3926 C.2     1  UNL1        0.3039
     15 O          62.1929   90.8711    4.8029 O.2     1  UNL1       -0.2526
     16 N          59.6432   90.8268    5.2999 N.am    1  UNL1       -0.2904
     17 C          61.6562   92.2011    2.1679 C.3     1  UNL1        0.0985
     18 C          61.3878   92.8660    0.8504 C.3     1  UNL1        0.0620
     19 O          61.1194   93.5310   -0.4671 O.3     1  UNL1       -0.4819
     20 H          58.7184   91.0305    5.0306 H       1  UNL1        0.1509
     21 C          59.9116   90.1618    6.6174 C.3     1  UNL1        0.0734
     22 C          59.1685   88.9860    7.1790 C.3     1  UNL1        0.0200
     23 C          59.7678   88.6534    8.5134 C.3     1  UNL1        0.0061
     24 C          60.8812   89.6236    8.7763 C.3     1  UNL1        0.0240
     25 C          60.9700   90.5558    7.6045 C.3     1  UNL1        0.0240
     26 C          61.7527   89.6558    9.9966 C.ar    1  UNL1       -0.0224
     27 C          61.8535   88.4467   10.8785 C.ar    1  UNL1       -0.0043
     28 C          62.7250   88.4789   12.0989 C.ar    1  UNL1       -0.0003
     29 C          63.4957   89.7204   12.4374 C.ar    1  UNL1       -0.0000
     30 C          63.3950   90.9297   11.5556 C.ar    1  UNL1       -0.0003
     31 C          62.5234   90.8973   10.3352 C.ar    1  UNL1       -0.0043
     32 C          59.7775   96.8559   -7.0546 C.3     1  UNL1        0.1816
     33 S          60.0459   96.1909   -5.7371 S.O2    1  UNL1        0.0105
     34 O          58.7300   96.6892   -5.2174 O.2     1  UNL1       -0.1686
     35 O          61.3618   95.6925   -6.2567 O.2     1  UNL1       -0.1686
@<TRIPOS>BOND
     1    32    33    1
     2    33    34    2
     3    33    35    2
     4    33     1    1
     5     1     2   ar
     6     2     3   ar
     7     3     4   ar
     8     4     5   ar
     9     5     6   ar
    10     5     7    1
    11     7     8    2
    12     7     9    1
    13     9    10    1
    14    10    11    1
    15    11    12    1
    16    12    13    1
    17    13    14   am
    18    14    15    2
    19    14    16   am
    20    21    16    1
    21    21    22    1
    22    22    23    1
    23    23    24    1
    24    24    26    1
    25    26    27   ar
    26    27    28   ar
    27    28    29   ar
    28    29    30   ar
    29    30    31   ar
    30    24    25    1
    31    13    17    1
    32    17    18    1
    33    10    19    1
    34     6     1   ar
    35    18    10    1
    36    19     4    1
    37    25    21    1
    38    31    26   ar
    39    16    20    1
@<TRIPOS>MOLECULE
*****
 35 39 0 0 0
SMALL
GASTEIGER

@<TRIPOS>ATOM
      1 C          63.4822   83.6056   14.0008 C.ar    1  UNL1        0.1060
      2 C          62.7419   82.7959   12.9780 C.ar    1  UNL1        0.0215
      3 C          62.1215   83.4724   11.7916 C.ar    1  UNL1        0.0383
      4 C          62.2415   84.9587   11.6281 C.ar    1  UNL1        0.1410
      5 C          62.9819   85.7684   12.6510 C.ar    1  UNL1        0.0700
      6 C          63.6022   85.0918   13.8374 C.ar    1  UNL1        0.0242
      7 C          63.1018   87.2546   12.4875 C.2     1  UNL1        0.1795
      8 O          63.8422   88.0643   13.5104 O.2     1  UNL1       -0.2911
      9 C          62.4815   87.9312   11.3011 C.3     1  UNL1        0.1092
     10 C          61.7411   87.1215   10.2782 C.3     1  UNL1        0.1436
     11 C          61.8611   88.6077   10.1148 C.3     1  UNL1        0.0620
     12 C          61.2407   89.2842    8.9284 C.3     1  UNL1        0.0985
     13 N          60.5004   88.4745    7.9055 N.am    1  UNL1       -0.2640
     14 C          59.8800   89.1511    6.7192 C.2     1  UNL1        0.3039
     15 O          59.1397   88.3414    5.6963 O.2     1  UNL1       -0.2526
     16 N          60.0000   90.6373    6.5557 N.am    1  UNL1       -0.2904
     17 C          60.3804   86.9883    8.0690 C.3     1  UNL1        0.0985
     18 C          61.0008   86.3118    9.2554 C.3     1  UNL1        0.0620
     19 O          61.6211   85.6352   10.4417 O.3     1  UNL1       -0.4819
     20 H          60.4859   91.1687    7.2270 H       1  UNL1        0.1509
     21 C          59.3796   91.3138    5.3693 C.3     1  UNL1        0.0734
     22 C          57.9101   91.4568    5.1046 C.3     1  UNL1        0.0200
     23 C          57.7421   92.1976    3.8111 C.3     1  UNL1        0.0061
     24 C          59.1078   92.5123    3.2764 C.3     1  UNL1        0.0240
     25 C          60.1198   91.9661    4.2394 C.3     1  UNL1        0.0240
     26 C          59.4086   93.2446    2.0024 C.ar    1  UNL1       -0.0224
     27 C          58.9670   92.6743    0.6872 C.ar    1  UNL1       -0.0043
     28 C          59.2678   93.4066   -0.5868 C.ar    1  UNL1       -0.0003
     29 C          60.0103   94.7093   -0.5457 C.ar    1  UNL1       -0.0000
     30 C          60.4520   95.2797    0.7695 C.ar    1  UNL1       -0.0003
     31 C          60.1512   94.5473    2.0435 C.ar    1  UNL1       -0.0043
     32 C          64.7230   82.2526   16.3736 C.3     1  UNL1        0.1816
     33 S          64.1026   82.9291   15.1872 S.O2    1  UNL1        0.0105
     34 O          63.7477   81.5910   14.6097 O.2     1  UNL1       -0.1686
     35 O          64.4575   84.2672   15.7646 O.2     1  UNL1       -0.1686
@<TRIPOS>BOND
     1    32    33    1
     2    33    34    2
     3    33    35    2
     4    33     1    1
     5     1     2   ar
     6     2     3   ar
     7     3     4   ar
     8     4     5   ar
     9     5     6   ar
    10     5     7    1
    11     7     8    2
    12     7     9    1
    13     9    10    1
    14    10    11    1
    15    11    12    1
    16    12    13    1
    17    13    14   am
    18    14    15    2
    19    14    16   am
    20    21    16    1
    21    21    22    1
    22    22    23    1
    23    23    24    1
    24    24    26    1
    25    26    27   ar
    26    27    28   ar
    27    28    29   ar
    28    29    30   ar
    29    30    31   ar
    30    24    25    1
    31    13    17    1
    32    17    18    1
    33    10    19    1
    34     6     1   ar
    35    18    10    1
    36    19     4    1
    37    25    21    1
    38    31    26   ar
    39    16    20    1
@<TRIPOS>MOLECULE
*****
 35 39 0 0 0
SMALL
GASTEIGER

@<TRIPOS>ATOM
      1 C          63.5005   82.6217   14.1342 C.ar    1  UNL1        0.1060
      2 C          62.7176   83.7059   14.8137 C.ar    1  UNL1        0.0215
      3 C          62.1070   84.8105   14.0033 C.ar    1  UNL1        0.0383
      4 C          62.2793   84.8311   12.5133 C.ar    1  UNL1        0.1410
      5 C          63.0622   83.7470   11.8338 C.ar    1  UNL1        0.0700
      6 C          63.6728   82.6422   12.6443 C.ar    1  UNL1        0.0242
      7 C          63.2344   83.7675   10.3439 C.2     1  UNL1        0.1795
      8 O          64.0173   82.6833    9.6644 O.2     1  UNL1       -0.2911
      9 C          62.6238   84.8722    9.5334 C.3     1  UNL1        0.1092
     10 C          61.8409   85.9564   10.2129 C.3     1  UNL1        0.1436
     11 C          62.0132   85.9769    8.7230 C.3     1  UNL1        0.0620
     12 C          61.4026   87.0816    7.9126 C.3     1  UNL1        0.0985
     13 N          60.6197   88.1657    8.5921 N.am    1  UNL1       -0.2640
     14 C          60.0091   89.2705    7.7817 C.2     1  UNL1        0.3039
     15 O          59.2263   90.3546    8.4611 O.2     1  UNL1       -0.2526
     16 N          60.1814   89.2910    6.2917 N.am    1  UNL1       -0.2904
     17 C          60.4475   88.1452   10.0820 C.3     1  UNL1        0.0985
     18 C          61.0581   87.0405   10.8924 C.3     1  UNL1        0.0620
     19 O          61.6687   85.9358   11.7029 O.3     1  UNL1       -0.4819
     20 H          60.6952   88.5794    5.8458 H       1  UNL1        0.1509
     21 C          59.5708   90.3957    5.4813 C.3     1  UNL1        0.0734
     22 C          58.1608   90.8952    5.5928 C.3     1  UNL1        0.0200
     23 C          57.9815   92.0031    4.5974 C.3     1  UNL1        0.0061
     24 C          59.2807   92.1882    3.8708 C.3     1  UNL1        0.0240
     25 C          60.2629   91.1947    4.4171 C.3     1  UNL1        0.0240
     26 C          59.5504   93.1906    2.7881 C.ar    1  UNL1       -0.0224
     27 C          59.2573   92.8469    1.3578 C.ar    1  UNL1       -0.0043
     28 C          59.5269   93.8493    0.2751 C.ar    1  UNL1       -0.0003
     29 C          60.0897   95.1956    0.6227 C.ar    1  UNL1       -0.0000
     30 C          60.3828   95.5394    2.0531 C.ar    1  UNL1       -0.0003
     31 C          60.1131   94.5369    3.1357 C.ar    1  UNL1       -0.0043
     32 C          64.7218   80.4123   15.7551 C.3     1  UNL1        0.1816
     33 S          64.1111   81.5170   14.9446 S.O2    1  UNL1        0.0105
     34 O          63.3695   80.5045   14.1232 O.2     1  UNL1       -0.1686
     35 O          64.8527   82.5295   15.7661 O.2     1  UNL1       -0.1686
@<TRIPOS>BOND
     1    32    33    1
     2    33    34    2
     3    33    35    2
     4    33     1    1
     5     1     2   ar
     6     2     3   ar
     7     3     4   ar
     8     4     5   ar
     9     5     6   ar
    10     5     7    1
    11     7     8    2
    12     7     9    1
    13     9    10    1
    14    10    11    1
    15    11    12    1
    16    12    13    1
    17    13    14   am
    18    14    15    2
    19    14    16   am
    20    21    16    1
    21    21    22    1
    22    22    23    1
    23    23    24    1
    24    24    26    1
    25    26    27   ar
    26    27    28   ar
    27    28    29   ar
    28    29    30   ar
    29    30    31   ar
    30    24    25    1
    31    13    17    1
    32    17    18    1
    33    10    19    1
    34     6     1   ar
    35    18    10    1
    36    19     4    1
    37    25    21    1
    38    31    26   ar
    39    16    20    1
@<TRIPOS>MOLECULE
*****
 35 39 0 0 0
SMALL
GASTEIGER

@<TRIPOS>ATOM
      1 C          61.6393   95.5100   -4.3505 C.ar    1  UNL1        0.1060
      2 C          62.9805   95.1829   -3.7638 C.ar    1  UNL1        0.0215
      3 C          63.0702   94.5103   -2.4261 C.ar    1  UNL1        0.0383
      4 C          61.8185   94.1646   -1.6750 C.ar    1  UNL1        0.1410
      5 C          60.4773   94.4917   -2.2617 C.ar    1  UNL1        0.0700
      6 C          60.3877   95.1644   -3.5995 C.ar    1  UNL1        0.0242
      7 C          59.2257   94.1461   -1.5107 C.2     1  UNL1        0.1795
      8 O          57.8845   94.4731   -2.0974 O.2     1  UNL1       -0.2911
      9 C          59.3153   93.4734   -0.1730 C.3     1  UNL1        0.1092
     10 C          60.6565   93.1464    0.4137 C.3     1  UNL1        0.1436
     11 C          59.4049   92.8008    1.1647 C.3     1  UNL1        0.0620
     12 C          59.4946   92.1281    2.5024 C.3     1  UNL1        0.0985
     13 N          60.8358   91.8011    3.0891 N.am    1  UNL1       -0.2640
     14 C          60.9254   91.1284    4.4269 C.2     1  UNL1        0.3039
     15 O          62.2666   90.8013    5.0136 O.2     1  UNL1       -0.2526
     16 N          59.6738   90.7828    5.1779 N.am    1  UNL1       -0.2904
     17 C          62.0874   92.1467    2.3381 C.3     1  UNL1        0.0985
     18 C          61.9977   92.8193    1.0004 C.3     1  UNL1        0.0620
     19 O          61.9082   93.4920   -0.3374 O.3     1  UNL1       -0.4819
     20 H          58.7935   90.9974    4.7928 H       1  UNL1        0.1509
     21 C          59.7634   90.1101    6.5156 C.3     1  UNL1        0.0734
     22 C          59.0633   90.5440    7.7693 C.3     1  UNL1        0.0200
     23 C          59.4360   89.5875    8.8631 C.3     1  UNL1        0.0061
     24 C          60.3664   88.5625    8.2853 C.3     1  UNL1        0.0240
     25 C          60.5687   88.8855    6.8346 C.3     1  UNL1        0.0240
     26 C          60.9857   87.4159    9.0280 C.ar    1  UNL1       -0.0224
     27 C          61.7704   86.3764    8.2837 C.ar    1  UNL1       -0.0043
     28 C          62.3897   85.2298    9.0264 C.ar    1  UNL1       -0.0003
     29 C          62.2243   85.1225   10.5134 C.ar    1  UNL1       -0.0000
     30 C          61.4396   86.1619   11.2577 C.ar    1  UNL1       -0.0003
     31 C          60.8203   87.3085   10.5150 C.ar    1  UNL1       -0.0043
     32 C          61.4601   96.8553   -7.0259 C.3     1  UNL1        0.1816
     33 S          61.5497   96.1826   -5.6882 S.O2    1  UNL1        0.0105
     34 O          60.1071   95.7850   -5.7915 O.2     1  UNL1       -0.1686
     35 O          62.9923   96.5802   -5.5849 O.2     1  UNL1       -0.1686
@<TRIPOS>BOND
     1    32    33    1
     2    33    34    2
     3    33    35    2
     4    33     1    1
     5     1     2   ar
     6     2     3   ar
     7     3     4   ar
     8     4     5   ar
     9     5     6   ar
    10     5     7    1
    11     7     8    2
    12     7     9    1
    13     9    10    1
    14    10    11    1
    15    11    12    1
    16    12    13    1
    17    13    14   am
    18    14    15    2
    19    14    16   am
    20    21    16    1
    21    21    22    1
    22    22    23    1
    23    23    24    1
    24    24    26    1
    25    26    27   ar
    26    27    28   ar
    27    28    29   ar
    28    29    30   ar
    29    30    31   ar
    30    24    25    1
    31    13    17    1
    32    17    18    1
    33    10    19    1
    34     6     1   ar
    35    18    10    1
    36    19     4    1
    37    25    21    1
    38    31    26   ar
    39    16    20    1
