@<TRIPOS>MOLECULE
*****
 41 44 0 0 0
SMALL
GASTEIGER

@<TRIPOS>ATOM
      1 N          63.8994   90.6829   13.6043 N.am    1  UNL1       -0.2770
      2 C          62.7268   90.1363   12.8453 C.2     1  UNL1        0.2253
      3 O          61.7271   89.2592   13.5392 O.2     1  UNL1       -0.2749
      4 C          62.5537   90.4667   11.3924 C.3     1  UNL1        0.0766
      5 C          61.3487   89.5999   11.6078 C.3     1  UNL1        0.0095
      6 C          63.5533   91.3438   10.6985 C.3     1  UNL1        0.0154
      7 C          64.7260   91.8904   11.4575 C.3     1  UNL1        0.0452
      8 C          64.8990   91.5600   12.9104 C.3     1  UNL1        0.1018
      9 C          65.7256   92.7675   10.7636 C.ar    1  UNL1       -0.0197
     10 C          65.4610   94.2368   10.6184 C.ar    1  UNL1       -0.0042
     11 C          66.4607   95.1139    9.9245 C.ar    1  UNL1        0.0005
     12 C          67.7249   94.5217    9.3759 C.ar    1  UNL1        0.0114
     13 C          67.9895   93.0523    9.5211 C.ar    1  UNL1        0.0574
     14 CL         69.2537   92.4600    8.9725 Cl      1  UNL1       -0.0823
     15 C          66.9898   92.1753   10.2150 C.ar    1  UNL1        0.0072
     16 C          66.0717   92.1066   13.6694 C.ar    1  UNL1       -0.0039
     17 C          67.1799   91.1914   14.0986 C.ar    1  UNL1       -0.0018
     18 C          68.3526   91.7379   14.8575 C.ar    1  UNL1        0.0111
     19 C          68.4171   93.1999   15.1873 C.ar    1  UNL1        0.0577
     20 CL         69.5898   93.7465   15.9462 Cl      1  UNL1       -0.0822
     21 C          67.3089   94.1151   14.7581 C.ar    1  UNL1        0.0111
     22 C          66.1362   93.5685   13.9991 C.ar    1  UNL1       -0.0018
     23 C          64.0725   90.3524   15.0572 C.3     1  UNL1        0.0991
     24 C          64.4492   92.1438   16.9009 C.3     1  UNL1        0.0018
     25 C          63.5221   91.2724   16.1063 C.3     1  UNL1        0.0216
     26 C          64.7959   89.1020   15.4609 C.3     1  UNL1        0.1703
     27 S          64.0198   87.8735   15.8332 S.O2    1  UNL1       -0.0115
     28 O          63.3889   88.6174   16.9727 O.2     1  UNL1       -0.1730
     29 O          64.6507   87.1297   14.6936 O.2     1  UNL1       -0.1730
     30 C          63.2437   86.6451   16.2054 C.3     1  UNL1        0.1108
     31 C          63.8670   85.9041   15.0598 C.3     1  UNL1        0.0236
     32 C          62.6203   87.3860   17.3510 C.3     1  UNL1        0.0236
     33 C          62.4676   85.4166   16.5777 C.3     1  UNL1        0.0236
     34 C          61.9621   90.4961   10.0144 C.3     1  UNL1        0.0753
     35 C          61.3509   89.2552    9.4340 C.ar    1  UNL1        0.1539
     36 N          61.9731   87.8905    9.4180 N.ar    1  UNL1       -0.2012
     37 O          61.0169   86.9531    8.7419 O.2     1  UNL1       -0.3204
     38 C          59.8037   87.7385    8.3401 C.ar    1  UNL1        0.4604
     39 O          58.5963   87.1963    7.6345 O.2     1  UNL1       -0.2188
     40 N          60.0102   89.1613    8.7679 N.ar    1  UNL1       -0.1573
     41 H          62.8543   87.6519    9.7865 H       1  UNL1        0.2088
@<TRIPOS>BOND
     1    24    25    1
     2    23    25    1
     3    23    26    1
     4    26    27    1
     5    27    28    2
     6    27    29    2
     7    27    30    1
     8    30    31    1
     9    30    32    1
    10    30    33    1
    11    23     1    1
    12     1     2   am
    13     2     3    2
    14     2     4    1
    15     4     5    1
    16     4    34    1
    17    34    35    1
    18    35    36   ar
    19    36    37   ar
    20    37    38   ar
    21    38    39    2
    22    38    40   ar
    23     4     6    1
    24     6     7    1
    25     7     9    1
    26     9    10   ar
    27    10    11   ar
    28    11    12   ar
    29    12    13   ar
    30    13    14    1
    31    13    15   ar
    32     7     8    1
    33     8    16    1
    34    16    17   ar
    35    17    18   ar
    36    18    19   ar
    37    19    20    1
    38    19    21   ar
    39    21    22   ar
    40     8     1    1
    41    22    16   ar
    42    40    35   ar
    43    15     9   ar
    44    36    41    1
@<TRIPOS>MOLECULE
*****
 41 44 0 0 0
SMALL
GASTEIGER

@<TRIPOS>ATOM
      1 N          64.0093   90.7929   13.4765 N.am    1  UNL1       -0.2770
      2 C          62.8324   90.2833   12.6986 C.2     1  UNL1        0.2253
      3 O          61.8150   89.4061   13.3662 O.2     1  UNL1       -0.2749
      4 C          62.6728   90.6507   11.2531 C.3     1  UNL1        0.0766
      5 C          61.4529   89.7984   11.4414 C.3     1  UNL1        0.0095
      6 C          63.6902   91.5277   10.5855 C.3     1  UNL1        0.0154
      7 C          64.8670   92.0374   11.3634 C.3     1  UNL1        0.0452
      8 C          65.0266   91.6699   12.8089 C.3     1  UNL1        0.1018
      9 C          65.8844   92.9145   10.6957 C.ar    1  UNL1       -0.0197
     10 C          67.1070   92.3064   10.0749 C.ar    1  UNL1       -0.0042
     11 C          68.1244   93.1835    9.4073 C.ar    1  UNL1        0.0005
     12 C          67.9192   94.6687    9.3605 C.ar    1  UNL1        0.0114
     13 C          66.6965   95.2767    9.9815 C.ar    1  UNL1        0.0574
     14 CL         66.4912   96.7619    9.9347 Cl      1  UNL1       -0.0823
     15 C          65.6792   94.3996   10.6490 C.ar    1  UNL1        0.0072
     16 C          66.2036   92.1796   13.5868 C.ar    1  UNL1       -0.0039
     17 C          66.1798   93.5651   14.1611 C.ar    1  UNL1       -0.0018
     18 C          67.3567   94.0748   14.9390 C.ar    1  UNL1        0.0111
     19 C          68.5574   93.1990   15.1425 C.ar    1  UNL1        0.0577
     20 CL         69.7343   93.7087   15.9204 Cl      1  UNL1       -0.0822
     21 C          68.5811   91.8135   14.5682 C.ar    1  UNL1        0.0111
     22 C          67.4042   91.3038   13.7903 C.ar    1  UNL1       -0.0018
     23 C          64.1688   90.4255   14.9220 C.3     1  UNL1        0.0991
     24 C          64.5617   92.1180   16.8536 C.3     1  UNL1        0.0018
     25 C          63.6243   91.3274   15.9897 C.3     1  UNL1        0.0216
     26 C          64.8729   89.1560   15.2999 C.3     1  UNL1        0.1703
     27 S          64.0815   87.9677   15.7596 S.O2    1  UNL1       -0.0115
     28 O          63.4761   88.7946   16.8550 O.2     1  UNL1       -0.1730
     29 O          64.6868   87.1408   14.6643 O.2     1  UNL1       -0.1730
     30 C          63.2900   86.7793   16.2194 C.3     1  UNL1        0.1108
     31 C          63.9080   85.9480   15.1345 C.3     1  UNL1        0.0236
     32 C          62.6720   87.6106   17.3043 C.3     1  UNL1        0.0236
     33 C          62.4985   85.5909   16.6791 C.3     1  UNL1        0.0236
     34 C          62.0895   90.7221    9.8730 C.3     1  UNL1        0.0753
     35 C          61.3051   89.5647    9.3296 C.ar    1  UNL1        0.1539
     36 N          60.0004   89.6514    8.5946 N.ar    1  UNL1       -0.2012
     37 O          59.5767   88.2578    8.2365 O.2     1  UNL1       -0.3204
     38 C          60.6195   87.3097    8.7501 C.ar    1  UNL1        0.4604
     39 O          60.5979   85.8163    8.6124 O.2     1  UNL1       -0.2188
     40 N          61.6877   88.1175    9.4257 N.ar    1  UNL1       -0.1573
     41 H          59.5086   90.4779    8.3842 H       1  UNL1        0.2088
@<TRIPOS>BOND
     1    24    25    1
     2    23    25    1
     3    23    26    1
     4    26    27    1
     5    27    28    2
     6    27    29    2
     7    27    30    1
     8    30    31    1
     9    30    32    1
    10    30    33    1
    11    23     1    1
    12     1     2   am
    13     2     3    2
    14     2     4    1
    15     4     5    1
    16     4    34    1
    17    34    35    1
    18    35    36   ar
    19    36    37   ar
    20    37    38   ar
    21    38    39    2
    22    38    40   ar
    23     4     6    1
    24     6     7    1
    25     7     9    1
    26     9    10   ar
    27    10    11   ar
    28    11    12   ar
    29    12    13   ar
    30    13    14    1
    31    13    15   ar
    32     7     8    1
    33     8    16    1
    34    16    17   ar
    35    17    18   ar
    36    18    19   ar
    37    19    20    1
    38    19    21   ar
    39    21    22   ar
    40     8     1    1
    41    22    16   ar
    42    40    35   ar
    43    15     9   ar
    44    36    41    1
@<TRIPOS>MOLECULE
*****
 41 44 0 0 0
SMALL
GASTEIGER

@<TRIPOS>ATOM
      1 N          63.7374   86.0495   13.2229 N.am    1  UNL1       -0.2770
      2 C          63.7061   87.4764   13.6844 C.2     1  UNL1        0.2253
      3 O          64.2737   87.8443   15.0233 O.2     1  UNL1       -0.2749
      4 C          63.1072   88.5354   12.8070 C.3     1  UNL1        0.0766
      5 C          63.5161   89.3719   13.9830 C.3     1  UNL1        0.0095
      6 C          62.5396   88.1675   11.4682 C.3     1  UNL1        0.0154
      7 C          62.5709   86.7406   11.0068 C.3     1  UNL1        0.0452
      8 C          63.1698   85.6816   11.8841 C.3     1  UNL1        0.1018
      9 C          62.0033   86.3727    9.6679 C.ar    1  UNL1       -0.0197
     10 C          62.8465   85.6302    8.6742 C.ar    1  UNL1       -0.0042
     11 C          62.2789   85.2623    7.3353 C.ar    1  UNL1        0.0005
     12 C          60.8680   85.6369    6.9902 C.ar    1  UNL1        0.0114
     13 C          60.0247   86.3794    7.9841 C.ar    1  UNL1        0.0574
     14 CL         58.6138   86.7540    7.6390 Cl      1  UNL1       -0.0823
     15 C          60.5924   86.7473    9.3229 C.ar    1  UNL1        0.0072
     16 C          63.2011   84.2547   11.4226 C.ar    1  UNL1       -0.0039
     17 C          61.9580   83.4179   11.4880 C.ar    1  UNL1       -0.0018
     18 C          61.9892   81.9910   11.0265 C.ar    1  UNL1        0.0111
     19 C          63.2637   81.4008   10.4996 C.ar    1  UNL1        0.0577
     20 CL         63.2950   79.9740   10.0382 Cl      1  UNL1       -0.0822
     21 C          64.5069   82.2376   10.4343 C.ar    1  UNL1        0.0111
     22 C          64.4756   83.6646   10.8958 C.ar    1  UNL1       -0.0018
     23 C          64.3364   84.9905   14.1003 C.3     1  UNL1        0.0991
     24 C          66.6833   85.5506   15.0637 C.3     1  UNL1        0.0018
     25 C          65.8210   84.7767   14.1111 C.3     1  UNL1        0.0216
     26 C          63.4507   84.1452   14.9669 C.3     1  UNL1        0.1703
     27 S          63.1247   82.7387   14.5601 S.O2    1  UNL1       -0.0115
     28 O          61.6850   82.9707   14.9116 O.2     1  UNL1       -0.1730
     29 O          64.5643   82.5067   14.2085 O.2     1  UNL1       -0.1730
     30 C          62.7987   81.3322   14.1532 C.3     1  UNL1        0.1108
     31 C          61.3461   81.5907   14.4238 C.3     1  UNL1        0.0236
     32 C          64.2513   81.0738   13.8827 C.3     1  UNL1        0.0236
     33 C          62.4727   79.9257   13.7464 C.3     1  UNL1        0.0236
     34 C          62.6503   89.8850   12.3381 C.3     1  UNL1        0.0753
     35 C          63.6591   90.9408   11.9952 C.ar    1  UNL1        0.1539
     36 N          64.0477   91.3729   10.6124 N.ar    1  UNL1       -0.2012
     37 O          65.0851   92.4491   10.7374 O.2     1  UNL1       -0.3204
     38 C          65.3376   92.6822   12.1976 C.ar    1  UNL1        0.4604
     39 O          66.3021   93.6733   12.7783 O.2     1  UNL1       -0.2188
     40 N          64.4563   91.7500   12.9749 N.ar    1  UNL1       -0.1573
     41 H          63.6854   91.0133    9.7705 H       1  UNL1        0.2088
@<TRIPOS>BOND
     1    24    25    1
     2    23    25    1
     3    23    26    1
     4    26    27    1
     5    27    28    2
     6    27    29    2
     7    27    30    1
     8    30    31    1
     9    30    32    1
    10    30    33    1
    11    23     1    1
    12     1     2   am
    13     2     3    2
    14     2     4    1
    15     4     5    1
    16     4    34    1
    17    34    35    1
    18    35    36   ar
    19    36    37   ar
    20    37    38   ar
    21    38    39    2
    22    38    40   ar
    23     4     6    1
    24     6     7    1
    25     7     9    1
    26     9    10   ar
    27    10    11   ar
    28    11    12   ar
    29    12    13   ar
    30    13    14    1
    31    13    15   ar
    32     7     8    1
    33     8    16    1
    34    16    17   ar
    35    17    18   ar
    36    18    19   ar
    37    19    20    1
    38    19    21   ar
    39    21    22   ar
    40     8     1    1
    41    22    16   ar
    42    40    35   ar
    43    15     9   ar
    44    36    41    1
@<TRIPOS>MOLECULE
*****
 41 44 0 0 0
SMALL
GASTEIGER

@<TRIPOS>ATOM
      1 N          63.1339   90.3098   11.9360 N.am    1  UNL1       -0.2770
      2 C          63.3249   91.2256   10.7636 C.2     1  UNL1        0.2253
      3 O          62.5265   91.0169    9.5109 O.2     1  UNL1       -0.2749
      4 C          64.3142   92.3503   10.8437 C.3     1  UNL1        0.0766
      5 C          63.7970   92.5570    9.4509 C.3     1  UNL1        0.0095
      6 C          65.1125   92.5591   12.0963 C.3     1  UNL1        0.0154
      7 C          64.9215   91.6432   13.2687 C.3     1  UNL1        0.0452
      8 C          63.9322   90.5186   13.1886 C.3     1  UNL1        0.1018
      9 C          65.7199   91.8520   14.5214 C.ar    1  UNL1       -0.0197
     10 C          65.0197   92.1042   15.8237 C.ar    1  UNL1       -0.0042
     11 C          65.8180   92.3129   17.0764 C.ar    1  UNL1        0.0005
     12 C          67.3166   92.2695   17.0267 C.ar    1  UNL1        0.0114
     13 C          68.0168   92.0173   15.7243 C.ar    1  UNL1        0.0574
     14 CL         69.5153   91.9739   15.6745 Cl      1  UNL1       -0.0823
     15 C          67.2184   91.8086   14.4717 C.ar    1  UNL1        0.0072
     16 C          63.7413   89.6027   14.3611 C.ar    1  UNL1       -0.0039
     17 C          64.3443   88.2293   14.3460 C.ar    1  UNL1       -0.0018
     18 C          64.1534   87.3134   15.5185 C.ar    1  UNL1        0.0111
     19 C          63.3595   87.7709   16.7061 C.ar    1  UNL1        0.0577
     20 CL         63.1686   86.8550   17.8785 Cl      1  UNL1       -0.0822
     21 C          62.7564   89.1442   16.7212 C.ar    1  UNL1        0.0111
     22 C          62.9473   90.0601   15.5487 C.ar    1  UNL1       -0.0018
     23 C          62.1446   89.1851   11.8559 C.3     1  UNL1        0.0991
     24 C          59.8513   90.3277   11.4253 C.3     1  UNL1        0.0018
     25 C          60.7144   89.4151   12.2452 C.3     1  UNL1        0.0216
     26 C          62.5855   87.8305   11.3863 C.3     1  UNL1        0.1703
     27 S          61.9037   87.1832   10.2174 S.O2    1  UNL1       -0.0115
     28 O          61.3211   86.1463   11.1314 O.2     1  UNL1       -0.1730
     29 O          62.4863   88.2201    9.3035 O.2     1  UNL1       -0.1730
     30 C          61.2219   86.5360    9.0486 C.3     1  UNL1        0.1108
     31 C          62.4639   85.7451    8.7621 C.3     1  UNL1        0.0236
     32 C          59.9800   87.3269    9.3350 C.3     1  UNL1        0.0236
     33 C          60.5401   85.8888    7.8797 C.3     1  UNL1        0.0236
     34 C          65.1238   93.5468   10.4401 C.3     1  UNL1        0.0753
     35 C          66.5458   93.3745    9.9947 C.ar    1  UNL1        0.1539
     36 N          67.6895   94.2875   10.3237 N.ar    1  UNL1       -0.2012
     37 O          68.9243   93.7362    9.6745 O.2     1  UNL1       -0.3204
     38 C          68.5436   92.4824    8.9442 C.ar    1  UNL1        0.4604
     39 O          69.4703   91.6061    8.1547 O.2     1  UNL1       -0.2188
     40 N          67.0737   92.2589    9.1421 N.ar    1  UNL1       -0.1573
     41 H          67.6387   95.1050   10.8699 H       1  UNL1        0.2088
@<TRIPOS>BOND
     1    24    25    1
     2    23    25    1
     3    23    26    1
     4    26    27    1
     5    27    28    2
     6    27    29    2
     7    27    30    1
     8    30    31    1
     9    30    32    1
    10    30    33    1
    11    23     1    1
    12     1     2   am
    13     2     3    2
    14     2     4    1
    15     4     5    1
    16     4    34    1
    17    34    35    1
    18    35    36   ar
    19    36    37   ar
    20    37    38   ar
    21    38    39    2
    22    38    40   ar
    23     4     6    1
    24     6     7    1
    25     7     9    1
    26     9    10   ar
    27    10    11   ar
    28    11    12   ar
    29    12    13   ar
    30    13    14    1
    31    13    15   ar
    32     7     8    1
    33     8    16    1
    34    16    17   ar
    35    17    18   ar
    36    18    19   ar
    37    19    20    1
    38    19    21   ar
    39    21    22   ar
    40     8     1    1
    41    22    16   ar
    42    40    35   ar
    43    15     9   ar
    44    36    41    1
@<TRIPOS>MOLECULE
*****
 41 44 0 0 0
SMALL
GASTEIGER

@<TRIPOS>ATOM
      1 N          63.5190   85.1397   12.5859 N.am    1  UNL1       -0.2770
      2 C          64.1308   85.3386   13.9409 C.2     1  UNL1        0.2253
      3 O          64.7168   84.1709   14.6780 O.2     1  UNL1       -0.2749
      4 C          64.1567   86.7051   14.5590 C.3     1  UNL1        0.0766
      5 C          64.8332   85.9169   15.6411 C.3     1  UNL1        0.0095
      6 C          63.5707   87.8728   13.8220 C.3     1  UNL1        0.0154
      7 C          62.9589   87.6739   12.4670 C.3     1  UNL1        0.0452
      8 C          62.9330   86.3074   11.8490 C.3     1  UNL1        0.1018
      9 C          62.3729   88.8416   11.7300 C.ar    1  UNL1       -0.0197
     10 C          63.1935   89.5724   10.7090 C.ar    1  UNL1       -0.0042
     11 C          62.6075   90.7401    9.9720 C.ar    1  UNL1        0.0005
     12 C          61.2009   91.1770   10.2560 C.ar    1  UNL1        0.0114
     13 C          60.3803   90.4461   11.2770 C.ar    1  UNL1        0.0574
     14 CL         58.9737   90.8829   11.5610 Cl      1  UNL1       -0.0823
     15 C          60.9663   89.2784   12.0140 C.ar    1  UNL1        0.0072
     16 C          62.3212   86.1086   10.4939 C.ar    1  UNL1       -0.0039
     17 C          63.1575   85.5890    9.3623 C.ar    1  UNL1       -0.0018
     18 C          62.5457   85.3901    8.0073 C.ar    1  UNL1        0.0111
     19 C          61.0975   85.7110    7.7838 C.ar    1  UNL1        0.0577
     20 CL         60.4857   85.5122    6.4288 Cl      1  UNL1       -0.0822
     21 C          60.2612   86.2306    8.9154 C.ar    1  UNL1        0.0111
     22 C          60.8730   86.4294   10.2705 C.ar    1  UNL1       -0.0018
     23 C          63.4931   83.7732   11.9679 C.3     1  UNL1        0.0991
     24 C          64.5828   82.5014    9.9817 C.3     1  UNL1        0.0018
     25 C          64.7147   83.2369   11.2823 C.3     1  UNL1        0.0216
     26 C          62.2457   82.9430   12.0354 C.3     1  UNL1        0.1703
     27 S          62.2097   81.7115   12.8910 S.O2    1  UNL1       -0.0115
     28 O          61.9677   82.5608   14.1034 O.2     1  UNL1       -0.1730
     29 O          62.4518   80.8621   11.6785 O.2     1  UNL1       -0.1730
     30 C          62.1738   80.4799   13.7465 C.3     1  UNL1        0.1108
     31 C          60.6929   80.6435   13.9198 C.3     1  UNL1        0.0236
     32 C          63.6548   80.3164   13.5733 C.3     1  UNL1        0.0236
     33 C          62.1379   79.2484   14.6021 C.3     1  UNL1        0.0236
     34 C          64.4175   87.7978   15.5529 C.3     1  UNL1        0.0753
     35 C          64.2621   89.2335   15.1471 C.ar    1  UNL1        0.1539
     36 N          63.1997   90.1761   15.6296 N.ar    1  UNL1       -0.2012
     37 O          63.4229   91.5038   14.9682 O.2     1  UNL1       -0.3204
     38 C          64.6232   91.3818   14.0769 C.ar    1  UNL1        0.4604
     39 O          65.2030   92.4715   13.2247 O.2     1  UNL1       -0.2188
     40 N          65.1419   89.9787   14.1874 N.ar    1  UNL1       -0.1573
     41 H          62.4820   89.9610   16.2682 H       1  UNL1        0.2088
@<TRIPOS>BOND
     1    24    25    1
     2    23    25    1
     3    23    26    1
     4    26    27    1
     5    27    28    2
     6    27    29    2
     7    27    30    1
     8    30    31    1
     9    30    32    1
    10    30    33    1
    11    23     1    1
    12     1     2   am
    13     2     3    2
    14     2     4    1
    15     4     5    1
    16     4    34    1
    17    34    35    1
    18    35    36   ar
    19    36    37   ar
    20    37    38   ar
    21    38    39    2
    22    38    40   ar
    23     4     6    1
    24     6     7    1
    25     7     9    1
    26     9    10   ar
    27    10    11   ar
    28    11    12   ar
    29    12    13   ar
    30    13    14    1
    31    13    15   ar
    32     7     8    1
    33     8    16    1
    34    16    17   ar
    35    17    18   ar
    36    18    19   ar
    37    19    20    1
    38    19    21   ar
    39    21    22   ar
    40     8     1    1
    41    22    16   ar
    42    40    35   ar
    43    15     9   ar
    44    36    41    1
