@<TRIPOS>MOLECULE
*****
 38 42 0 0 0
SMALL
GASTEIGER

@<TRIPOS>ATOM
      1 C          64.2183   91.0391   15.4972 C.3     1  UNL1        0.0870
      2 O          62.4029   84.7133   17.4817 O.2     1  UNL1       -0.2699
      3 C          63.0504   85.1982   16.2185 C.2     1  UNL1        0.2492
      4 N          63.3424   86.6584   16.0382 N.am    1  UNL1       -0.2761
      5 C          62.9868   87.6337   17.1210 C.3     1  UNL1        0.0938
      6 C          63.2788   89.0939   16.9407 C.3     1  UNL1        0.0230
      7 C          63.9263   89.5788   15.6775 C.3     1  UNL1        0.0205
      8 C          64.2818   88.6036   14.5947 C.3     1  UNL1        0.0230
      9 C          63.9899   87.1434   14.7750 C.3     1  UNL1        0.0938
     10 C          63.4059   84.2229   15.1357 C.2     1  UNL1        0.0579
     11 C          62.4594   83.9901   13.9956 C.2     1  UNL1        0.0048
     12 C          62.8150   83.0148   12.9129 C.ar    1  UNL1        0.0046
     13 C          62.4407   81.5690   13.0532 C.ar    1  UNL1        0.0298
     14 C          62.7963   80.5938   11.9705 C.ar    1  UNL1        0.1424
     15 F          62.4220   79.1480   12.1107 F       1  UNL1       -0.2041
     16 C          63.5262   81.0643   10.7474 C.ar    1  UNL1        0.0592
     17 C          63.9006   82.5100   10.6071 C.ar    1  UNL1        0.1424
     18 F          64.6305   82.9805    9.3840 F       1  UNL1       -0.2041
     19 C          63.5449   83.4852   11.6898 C.ar    1  UNL1        0.0298
     20 N          64.9248   91.5158   14.2629 N.3     1  UNL1       -0.2717
     21 C          66.3716   91.9062   14.3304 C.3     1  UNL1        0.0725
     22 C          67.0781   92.3829   13.0961 C.3     1  UNL1        0.0218
     23 C          66.3379   92.4693   11.7943 C.3     1  UNL1        0.0267
     24 C          64.8913   92.0789   11.7268 C.3     1  UNL1        0.0218
     25 C          64.1847   91.6022   12.9611 C.3     1  UNL1        0.0725
     26 C          67.0445   92.9461   10.5600 C.ar    1  UNL1       -0.0004
     27 C          67.9504   92.1257    9.6902 C.ar    1  UNL1        0.0963
     28 N          68.4350   92.9996    8.5715 N.ar    1  UNL1       -0.2273
     29 C          67.8286   94.3599    8.7498 C.ar    1  UNL1        0.1402
     30 N          67.9480   95.6244    7.9519 N.ar    1  UNL1       -0.3374
     31 C          67.2079   96.8559    8.3829 C.ar    1  UNL1        0.0735
     32 C          66.3486   96.8228    9.6119 C.ar    1  UNL1        0.0186
     33 C          66.2292   95.5583   10.4098 C.ar    1  UNL1        0.0042
     34 C          66.9692   94.3268    9.9788 C.ar    1  UNL1        0.0315
     35 H          68.5120   95.6461    7.1453 H       1  UNL1        0.1674
     36 C          63.8037   92.0226   16.5511 C.3     1  UNL1        0.1530
     37 O          64.8315   92.8953   17.2084 O.3     1  UNL1       -0.3806
     38 H          65.4374   92.3453   17.7291 H       1  UNL1        0.2105
@<TRIPOS>BOND
     1     2     3    2
     2     3    10    1
     3    10    11    2
     4    11    12    1
     5    12    13   ar
     6    13    14   ar
     7    14    15    1
     8    14    16   ar
     9    16    17   ar
    10    17    18    1
    11    17    19   ar
    12     3     4   am
    13     4     5    1
    14     5     6    1
    15     6     7    1
    16     7     1    1
    17     1    36    1
    18    36    37    1
    19     1    20    1
    20    20    21    1
    21    21    22    1
    22    22    23    1
    23    23    26    1
    24    26    27   ar
    25    27    28   ar
    26    28    29   ar
    27    29    30   ar
    28    30    31   ar
    29    31    32   ar
    30    32    33   ar
    31    33    34   ar
    32    23    24    1
    33    24    25    1
    34     7     8    1
    35     8     9    1
    36    19    12   ar
    37     9     4    1
    38    25    20    1
    39    34    26   ar
    40    34    29    1
    41    37    38    1
    42    30    35    1
