@<TRIPOS>MOLECULE
*****
 31 33 0 0 0
SMALL
GASTEIGER

@<TRIPOS>ATOM
      1 N          65.2526   90.8667   12.7237 N.am    1  UNL1       -0.2917
      2 C          64.1272   90.2563   13.5051 C.2     1  UNL1        0.2462
      3 O          63.1900   91.1339   14.2806 O.2     1  UNL1       -0.2701
      4 H          65.8677   90.2907   12.2147 H       1  UNL1        0.1502
      5 C          63.9389   88.7681   13.5111 C.ar    1  UNL1        0.0534
      6 C          64.4700   87.9495   14.6502 C.ar    1  UNL1        0.0045
      7 C          64.2817   86.4614   14.6561 C.ar    1  UNL1        0.0002
      8 C          63.5623   85.7919   13.5229 C.ar    1  UNL1        0.0022
      9 C          63.0311   86.6105   12.3838 C.ar    1  UNL1        0.0002
     10 C          63.2194   88.0986   12.3778 C.ar    1  UNL1        0.0045
     11 C          63.3740   84.3037   13.5289 C.ar    1  UNL1        0.0275
     12 C          64.1593   83.4446   12.5828 C.ar    1  UNL1        0.0022
     13 C          63.9710   81.9564   12.5887 C.ar    1  UNL1        0.0001
     14 C          62.9974   81.3275   13.5408 C.ar    1  UNL1        0.0023
     15 C          62.2121   82.1867   14.4869 C.ar    1  UNL1        0.0296
     16 C          62.4004   83.6748   14.4809 C.ar    1  UNL1        0.1401
     17 F          61.6151   84.5340   15.4271 F       1  UNL1       -0.2042
     18 C          65.4409   92.3549   12.7177 C.3     1  UNL1        0.1945
     19 C          65.9225   93.0549   13.9539 C.2     1  UNL1        0.3370
     20 O          66.2560   94.5166   13.9063 O.2     1  UNL1       -0.2482
     21 O          66.0705   92.2932   15.2376 O.3     1  UNL1       -0.4473
     22 C          67.1430   92.6725   16.2153 C.3     1  UNL1        0.2084
     23 C          69.1488   94.3237   16.2112 C.3     1  UNL1        0.0038
     24 C          68.5051   93.0605   15.7214 C.3     1  UNL1        0.0439
     25 C          69.2235   92.1853   14.7375 C.3     1  UNL1        0.0038
     26 C          65.1476   93.1430   11.4757 C.3     1  UNL1        0.1386
     27 N          66.2748   93.6554   10.6290 N.ar    1  UNL1       -0.3055
     28 C          66.4449   95.0656   10.1469 C.ar    1  UNL1        0.0981
     29 C          67.7050   95.1293    9.3356 C.ar    1  UNL1        0.1193
     30 N          68.3136   93.7584    9.3164 N.ar    1  UNL1       -0.2223
     31 C          67.4297   92.8475   10.1157 C.ar    1  UNL1        0.1787
@<TRIPOS>BOND
     1    23    24    1
     2    24    25    1
     3    24    22    1
     4    22    21    1
     5    21    19    1
     6    19    20    2
     7    19    18    1
     8    18    26    1
     9    26    27    1
    10    27    28   ar
    11    28    29   ar
    12    29    30   ar
    13    30    31   ar
    14    18     1    1
    15     1     2   am
    16     2     3    2
    17     2     5    1
    18     5     6   ar
    19     6     7   ar
    20     7     8   ar
    21     8    11    1
    22    11    12   ar
    23    12    13   ar
    24    13    14   ar
    25    14    15   ar
    26    15    16   ar
    27    16    17    1
    28     8     9   ar
    29     9    10   ar
    30    31    27   ar
    31    10     5   ar
    32    16    11   ar
    33     1     4    1
@<TRIPOS>MOLECULE
*****
 31 33 0 0 0
SMALL
GASTEIGER

@<TRIPOS>ATOM
      1 N          64.6843   90.0789   13.0731 N.am    1  UNL1       -0.2917
      2 C          63.3918   89.4358   12.6660 C.2     1  UNL1        0.2462
      3 O          62.2260   90.2873   12.2588 O.2     1  UNL1       -0.2701
      4 H          65.4494   89.5200   13.3404 H       1  UNL1        0.1502
      5 C          63.2650   87.9411   12.6661 C.ar    1  UNL1        0.0534
      6 C          62.4731   87.2555   11.5925 C.ar    1  UNL1        0.0045
      7 C          62.3464   85.7609   11.5926 C.ar    1  UNL1        0.0002
      8 C          63.0116   84.9519   12.6664 C.ar    1  UNL1        0.0022
      9 C          63.8035   85.6375   13.7400 C.ar    1  UNL1        0.0002
     10 C          63.9303   87.1321   13.7399 C.ar    1  UNL1        0.0045
     11 C          62.8849   83.4572   12.6665 C.ar    1  UNL1        0.0275
     12 C          62.3494   82.7500   13.8760 C.ar    1  UNL1        0.0022
     13 C          62.2227   81.2553   13.8761 C.ar    1  UNL1        0.0001
     14 C          62.6314   80.4679   12.6666 C.ar    1  UNL1        0.0023
     15 C          63.1669   81.1752   11.4570 C.ar    1  UNL1        0.0296
     16 C          63.2936   82.6698   11.4569 C.ar    1  UNL1        0.1401
     17 F          63.8291   83.3771   10.2473 F       1  UNL1       -0.2042
     18 C          64.8110   91.5736   13.0730 C.3     1  UNL1        0.1945
     19 C          65.1688   92.2960   14.3380 C.2     1  UNL1        0.3370
     20 O          64.6332   91.8144   15.6538 O.2     1  UNL1       -0.2482
     21 O          66.0621   93.4999   14.2872 O.3     1  UNL1       -0.4473
     22 C          67.5522   93.3281   14.2737 C.3     1  UNL1        0.2084
     23 C          69.1136   94.4309   16.0332 C.3     1  UNL1        0.0038
     24 C          68.3102   93.2535   15.5659 C.3     1  UNL1        0.0439
     25 C          68.2649   92.0015   16.3909 C.3     1  UNL1        0.0038
     26 C          64.5800   92.3458   11.8080 C.3     1  UNL1        0.1386
     27 N          65.7191   93.0678   11.1515 N.ar    1  UNL1       -0.3055
     28 C          65.7625   94.5302   10.8206 C.ar    1  UNL1        0.0981
     29 C          67.0850   94.8204   10.1752 C.ar    1  UNL1        0.1193
     30 N          67.8591   93.5373   10.1072 N.ar    1  UNL1       -0.2223
     31 C          67.0148   92.4542   10.7105 C.ar    1  UNL1        0.1787
@<TRIPOS>BOND
     1    23    24    1
     2    24    25    1
     3    24    22    1
     4    22    21    1
     5    21    19    1
     6    19    20    2
     7    19    18    1
     8    18    26    1
     9    26    27    1
    10    27    28   ar
    11    28    29   ar
    12    29    30   ar
    13    30    31   ar
    14    18     1    1
    15     1     2   am
    16     2     3    2
    17     2     5    1
    18     5     6   ar
    19     6     7   ar
    20     7     8   ar
    21     8    11    1
    22    11    12   ar
    23    12    13   ar
    24    13    14   ar
    25    14    15   ar
    26    15    16   ar
    27    16    17    1
    28     8     9   ar
    29     9    10   ar
    30    31    27   ar
    31    10     5   ar
    32    16    11   ar
    33     1     4    1
@<TRIPOS>MOLECULE
*****
 31 33 0 0 0
SMALL
GASTEIGER

@<TRIPOS>ATOM
      1 N          64.8696   89.8505   13.0902 N.am    1  UNL1       -0.2917
      2 C          63.5113   89.2190   13.1675 C.2     1  UNL1        0.2462
      3 O          62.2955   90.0763   13.3597 O.2     1  UNL1       -0.2701
      4 H          65.6676   89.2878   12.9641 H       1  UNL1        0.1502
      5 C          63.3686   87.7302   13.0527 C.ar    1  UNL1        0.0534
      6 C          63.9867   86.8356   14.0860 C.ar    1  UNL1        0.0045
      7 C          63.8440   85.3469   13.9711 C.ar    1  UNL1        0.0002
      8 C          63.0833   84.7527   12.8230 C.ar    1  UNL1        0.0022
      9 C          62.4652   85.6473   11.7897 C.ar    1  UNL1        0.0002
     10 C          62.6079   87.1360   11.9046 C.ar    1  UNL1        0.0045
     11 C          62.9406   83.2639   12.7081 C.ar    1  UNL1        0.0275
     12 C          62.3811   82.4735   13.8536 C.ar    1  UNL1        0.0022
     13 C          62.2385   80.9847   13.7388 C.ar    1  UNL1        0.0001
     14 C          62.6554   80.2863   12.4784 C.ar    1  UNL1        0.0023
     15 C          63.2149   81.0768   11.3329 C.ar    1  UNL1        0.0296
     16 C          63.3576   82.5655   11.4478 C.ar    1  UNL1        0.1401
     17 F          63.9171   83.3560   10.3022 F       1  UNL1       -0.2042
     18 C          65.0123   91.3393   13.2051 C.3     1  UNL1        0.1945
     19 C          64.8086   92.2075   11.9989 C.2     1  UNL1        0.3370
     20 O          63.8496   91.7865   10.9251 O.2     1  UNL1       -0.2482
     21 O          65.5640   93.4966   11.8665 O.3     1  UNL1       -0.4473
     22 C          65.8466   94.0641   10.5071 C.3     1  UNL1        0.2084
     23 C          67.7969   92.4292    9.9845 C.3     1  UNL1        0.0038
     24 C          67.1541   93.7758    9.8310 C.3     1  UNL1        0.0439
     25 C          67.8189   94.8340    9.0013 C.3     1  UNL1        0.0038
     26 C          65.3586   91.9599   14.5260 C.3     1  UNL1        0.1386
     27 N          66.7773   92.3443   14.8251 N.ar    1  UNL1       -0.3055
     28 C          67.2572   93.0568   16.0548 C.ar    1  UNL1        0.0981
     29 C          68.7417   93.2365   15.9367 C.ar    1  UNL1        0.1193
     30 N          69.1792   92.6350   14.6341 N.ar    1  UNL1       -0.2223
     31 C          67.9651   92.0836   13.9471 C.ar    1  UNL1        0.1787
@<TRIPOS>BOND
     1    23    24    1
     2    24    25    1
     3    24    22    1
     4    22    21    1
     5    21    19    1
     6    19    20    2
     7    19    18    1
     8    18    26    1
     9    26    27    1
    10    27    28   ar
    11    28    29   ar
    12    29    30   ar
    13    30    31   ar
    14    18     1    1
    15     1     2   am
    16     2     3    2
    17     2     5    1
    18     5     6   ar
    19     6     7   ar
    20     7     8   ar
    21     8    11    1
    22    11    12   ar
    23    12    13   ar
    24    13    14   ar
    25    14    15   ar
    26    15    16   ar
    27    16    17    1
    28     8     9   ar
    29     9    10   ar
    30    31    27   ar
    31    10     5   ar
    32    16    11   ar
    33     1     4    1
@<TRIPOS>MOLECULE
*****
 31 33 0 0 0
SMALL
GASTEIGER

@<TRIPOS>ATOM
      1 N          62.1360   88.8228   10.1675 N.am    1  UNL1       -0.2917
      2 C          61.9534   89.3995   11.5401 C.2     1  UNL1        0.2462
      3 O          60.6031   89.3696   12.1927 O.2     1  UNL1       -0.2701
      4 H          63.0222   88.8424    9.7392 H       1  UNL1        0.1502
      5 C          63.1212   90.0060   12.2602 C.ar    1  UNL1        0.0534
      6 C          63.6241   89.3854   13.5298 C.ar    1  UNL1        0.0045
      7 C          64.7918   89.9920   14.2498 C.ar    1  UNL1        0.0002
      8 C          65.4566   91.2192   13.7003 C.ar    1  UNL1        0.0022
      9 C          64.9537   91.8398   12.4307 C.ar    1  UNL1        0.0002
     10 C          63.7860   91.2332   11.7107 C.ar    1  UNL1        0.0045
     11 C          66.6244   91.8257   14.4204 C.ar    1  UNL1        0.0275
     12 C          67.9824   91.8221   13.7835 C.ar    1  UNL1        0.0022
     13 C          69.1502   92.4287   14.5036 C.ar    1  UNL1        0.0001
     14 C          68.9598   93.0388   15.8606 C.ar    1  UNL1        0.0023
     15 C          67.6017   93.0424   16.4975 C.ar    1  UNL1        0.0296
     16 C          66.4340   92.4359   15.7774 C.ar    1  UNL1        0.1401
     17 F          65.0759   92.4394   16.4143 F       1  UNL1       -0.2042
     18 C          60.9682   88.2162    9.4474 C.3     1  UNL1        0.1945
     19 C          60.0663   89.0820    8.6185 C.2     1  UNL1        0.3370
     20 O          59.5006   90.3454    9.1963 O.2     1  UNL1       -0.2482
     21 O          59.7301   88.6843    7.2118 O.3     1  UNL1       -0.4473
     22 C          58.6150   89.3744    6.4835 C.3     1  UNL1        0.2084
     23 C          60.3267   90.8402    5.1907 C.3     1  UNL1        0.0038
     24 C          58.9121   90.5428    5.5911 C.3     1  UNL1        0.0439
     25 C          57.7944   91.4140    5.0991 C.3     1  UNL1        0.0038
     26 C          60.7024   86.7440    9.5562 C.3     1  UNL1        0.1386
     27 N          61.7583   85.8297   10.1030 N.ar    1  UNL1       -0.3055
     28 C          61.9509   85.4685   11.5461 C.ar    1  UNL1        0.0981
     29 C          63.1187   84.5316   11.6376 C.ar    1  UNL1        0.1193
     30 N          63.6479   84.3137   10.2510 N.ar    1  UNL1       -0.2223
     31 C          62.8071   85.1160    9.3026 C.ar    1  UNL1        0.1787
@<TRIPOS>BOND
     1    23    24    1
     2    24    25    1
     3    24    22    1
     4    22    21    1
     5    21    19    1
     6    19    20    2
     7    19    18    1
     8    18    26    1
     9    26    27    1
    10    27    28   ar
    11    28    29   ar
    12    29    30   ar
    13    30    31   ar
    14    18     1    1
    15     1     2   am
    16     2     3    2
    17     2     5    1
    18     5     6   ar
    19     6     7   ar
    20     7     8   ar
    21     8    11    1
    22    11    12   ar
    23    12    13   ar
    24    13    14   ar
    25    14    15   ar
    26    15    16   ar
    27    16    17    1
    28     8     9   ar
    29     9    10   ar
    30    31    27   ar
    31    10     5   ar
    32    16    11   ar
    33     1     4    1
@<TRIPOS>MOLECULE
*****
 31 33 0 0 0
SMALL
GASTEIGER

@<TRIPOS>ATOM
      1 N          64.4553   90.0493   14.1359 N.am    1  UNL1       -0.2917
      2 C          63.4897   90.4570   13.0629 C.2     1  UNL1        0.2462
      3 O          62.9212   91.8450   13.0535 O.2     1  UNL1       -0.2701
      4 H          64.8285   89.1383   14.1421 H       1  UNL1        0.1502
      5 C          63.0926   89.4766   11.9993 C.ar    1  UNL1        0.0534
      6 C          63.0556   88.0092   12.3079 C.ar    1  UNL1        0.0045
      7 C          62.6585   87.0289   11.2443 C.ar    1  UNL1        0.0002
      8 C          62.2984   87.5161    9.8720 C.ar    1  UNL1        0.0022
      9 C          62.3354   88.9835    9.5634 C.ar    1  UNL1        0.0002
     10 C          62.7325   89.9638   10.6271 C.ar    1  UNL1        0.0045
     11 C          61.9013   86.5357    8.8084 C.ar    1  UNL1        0.0275
     12 C          62.9153   85.5802    8.2528 C.ar    1  UNL1        0.0022
     13 C          62.5182   84.5998    7.1892 C.ar    1  UNL1        0.0001
     14 C          61.1071   84.5751    6.6812 C.ar    1  UNL1        0.0023
     15 C          60.0931   85.5307    7.2368 C.ar    1  UNL1        0.0296
     16 C          60.4902   86.5109    8.3004 C.ar    1  UNL1        0.1401
     17 F          59.4762   87.4665    8.8560 F       1  UNL1       -0.2042
     18 C          64.8524   91.0296   15.1996 C.3     1  UNL1        0.1945
     19 C          63.9808   91.2224   16.4051 C.2     1  UNL1        0.3370
     20 O          63.5686   92.6039   16.8194 O.2     1  UNL1       -0.2482
     21 O          63.5214   90.0337   17.1961 O.3     1  UNL1       -0.4473
     22 C          62.7634   88.9301   16.5197 C.3     1  UNL1        0.2084
     23 C          62.7117   86.8035   18.0114 C.3     1  UNL1        0.0038
     24 C          63.1493   87.5001   16.7571 C.3     1  UNL1        0.0439
     25 C          63.9727   86.7668   15.7401 C.3     1  UNL1        0.0038
     26 C          66.1211   91.8172   15.0577 C.3     1  UNL1        0.1386
     27 N          66.6310   92.1785   13.6942 N.ar    1  UNL1       -0.3055
     28 C          65.9698   93.1124   12.7243 C.ar    1  UNL1        0.0981
     29 C          66.8219   93.1803   11.4917 C.ar    1  UNL1        0.1193
     30 N          68.0098   92.2883   11.6998 N.ar    1  UNL1       -0.2223
     31 C          67.8919   91.6692   13.0610 C.ar    1  UNL1        0.1787
@<TRIPOS>BOND
     1    23    24    1
     2    24    25    1
     3    24    22    1
     4    22    21    1
     5    21    19    1
     6    19    20    2
     7    19    18    1
     8    18    26    1
     9    26    27    1
    10    27    28   ar
    11    28    29   ar
    12    29    30   ar
    13    30    31   ar
    14    18     1    1
    15     1     2   am
    16     2     3    2
    17     2     5    1
    18     5     6   ar
    19     6     7   ar
    20     7     8   ar
    21     8    11    1
    22    11    12   ar
    23    12    13   ar
    24    13    14   ar
    25    14    15   ar
    26    15    16   ar
    27    16    17    1
    28     8     9   ar
    29     9    10   ar
    30    31    27   ar
    31    10     5   ar
    32    16    11   ar
    33     1     4    1
@<TRIPOS>MOLECULE
*****
 31 33 0 0 0
SMALL
GASTEIGER

@<TRIPOS>ATOM
      1 N          62.7748   87.6234   11.2449 N.am    1  UNL1       -0.2917
      2 C          62.4437   88.7997   12.1148 C.2     1  UNL1        0.2462
      3 O          61.0112   89.1666   12.3668 O.2     1  UNL1       -0.2701
      4 H          63.7150   87.3827   11.0796 H       1  UNL1        0.1502
      5 C          63.5450   89.6092   12.7328 C.ar    1  UNL1        0.0534
      6 C          63.9873   90.8893   12.0883 C.ar    1  UNL1        0.0045
      7 C          65.0886   91.6987   12.7063 C.ar    1  UNL1        0.0002
      8 C          65.7476   91.2279   13.9688 C.ar    1  UNL1        0.0022
      9 C          65.3054   89.9477   14.6134 C.ar    1  UNL1        0.0002
     10 C          64.2041   89.1383   13.9954 C.ar    1  UNL1        0.0045
     11 C          66.8490   92.0374   14.5869 C.ar    1  UNL1        0.0275
     12 C          66.5926   92.8181   15.8417 C.ar    1  UNL1        0.0022
     13 C          67.6939   93.6275   16.4597 C.ar    1  UNL1        0.0001
     14 C          69.0517   93.6562   15.8228 C.ar    1  UNL1        0.0023
     15 C          69.3081   92.8754   14.5679 C.ar    1  UNL1        0.0296
     16 C          68.2068   92.0660   13.9499 C.ar    1  UNL1        0.1401
     17 F          68.4632   91.2853   12.6950 F       1  UNL1       -0.2042
     18 C          61.6734   86.8140   10.6269 C.3     1  UNL1        0.1945
     19 C          60.8936   87.3675    9.4712 C.2     1  UNL1        0.3370
     20 O          60.9071   88.8418    9.1948 O.2     1  UNL1       -0.2482
     21 O          60.1005   86.4468    8.5920 O.3     1  UNL1       -0.4473
     22 C          60.5710   86.1497    7.1990 C.3     1  UNL1        0.2084
     23 C          62.8678   85.1087    7.8242 C.3     1  UNL1        0.0038
     24 C          61.6342   85.1165    6.9709 C.3     1  UNL1        0.0439
     25 C          61.4638   84.0911    5.8894 C.3     1  UNL1        0.0038
     26 C          61.3519   85.4511   11.1646 C.3     1  UNL1        0.1386
     27 N          62.4220   84.6341   11.8258 N.ar    1  UNL1       -0.3055
     28 C          63.3556   83.6821   11.1387 C.ar    1  UNL1        0.0981
     29 C          64.2570   83.0852   12.1784 C.ar    1  UNL1        0.1193
     30 N          63.8806   83.6684   13.5082 N.ar    1  UNL1       -0.2223
     31 C          62.7465   84.6256   13.2903 C.ar    1  UNL1        0.1787
@<TRIPOS>BOND
     1    23    24    1
     2    24    25    1
     3    24    22    1
     4    22    21    1
     5    21    19    1
     6    19    20    2
     7    19    18    1
     8    18    26    1
     9    26    27    1
    10    27    28   ar
    11    28    29   ar
    12    29    30   ar
    13    30    31   ar
    14    18     1    1
    15     1     2   am
    16     2     3    2
    17     2     5    1
    18     5     6   ar
    19     6     7   ar
    20     7     8   ar
    21     8    11    1
    22    11    12   ar
    23    12    13   ar
    24    13    14   ar
    25    14    15   ar
    26    15    16   ar
    27    16    17    1
    28     8     9   ar
    29     9    10   ar
    30    31    27   ar
    31    10     5   ar
    32    16    11   ar
    33     1     4    1
@<TRIPOS>MOLECULE
*****
 31 33 0 0 0
SMALL
GASTEIGER

@<TRIPOS>ATOM
      1 N          62.7012   87.7571   11.4802 N.am    1  UNL1       -0.2917
      2 C          62.4510   89.0925   12.1157 C.2     1  UNL1        0.2462
      3 O          61.0673   89.6718   12.1239 O.2     1  UNL1       -0.2701
      4 H          63.6093   87.3769   11.4748 H       1  UNL1        0.1502
      5 C          63.5844   89.8488   12.7429 C.ar    1  UNL1        0.0534
      6 C          64.0995   91.1006   12.0965 C.ar    1  UNL1        0.0045
      7 C          65.2329   91.8568   12.7238 C.ar    1  UNL1        0.0002
      8 C          65.8512   91.3613   13.9975 C.ar    1  UNL1        0.0022
      9 C          65.3361   90.1096   14.6438 C.ar    1  UNL1        0.0002
     10 C          64.2027   89.3534   14.0166 C.ar    1  UNL1        0.0045
     11 C          66.9846   92.1176   14.6247 C.ar    1  UNL1        0.0275
     12 C          66.7584   92.8990   15.8849 C.ar    1  UNL1        0.0022
     13 C          67.8918   93.6554   16.5122 C.ar    1  UNL1        0.0001
     14 C          69.2515   93.6302   15.8792 C.ar    1  UNL1        0.0023
     15 C          69.4777   92.8488   14.6189 C.ar    1  UNL1        0.0296
     16 C          68.3443   92.0925   13.9917 C.ar    1  UNL1        0.1401
     17 F          68.5705   91.3110   12.7314 F       1  UNL1       -0.2042
     18 C          61.5678   87.0007   10.8529 C.3     1  UNL1        0.1945
     19 C          61.7610   85.5747   10.4297 C.2     1  UNL1        0.3370
     20 O          61.8267   85.2274    8.9719 O.2     1  UNL1       -0.2482
     21 O          61.8885   84.4961   11.4641 O.3     1  UNL1       -0.4473
     22 C          63.2305   84.1770   12.0535 C.3     1  UNL1        0.2084
     23 C          64.2883   81.9092   12.7522 C.3     1  UNL1        0.0038
     24 C          63.9267   82.9003   11.6859 C.3     1  UNL1        0.0439
     25 C          64.2614   82.6145   10.2518 C.3     1  UNL1        0.0038
     26 C          60.2412   87.6704   10.6490 C.3     1  UNL1        0.1386
     27 N          59.7561   87.9664    9.2608 N.ar    1  UNL1       -0.3055
     28 C          60.0350   89.2144    8.4767 C.ar    1  UNL1        0.0981
     29 C          59.3581   89.0856    7.1443 C.ar    1  UNL1        0.1193
     30 N          58.6609   87.7581    7.1050 N.ar    1  UNL1       -0.2223
     31 C          58.9068   87.0664    8.4131 C.ar    1  UNL1        0.1787
@<TRIPOS>BOND
     1    23    24    1
     2    24    25    1
     3    24    22    1
     4    22    21    1
     5    21    19    1
     6    19    20    2
     7    19    18    1
     8    18    26    1
     9    26    27    1
    10    27    28   ar
    11    28    29   ar
    12    29    30   ar
    13    30    31   ar
    14    18     1    1
    15     1     2   am
    16     2     3    2
    17     2     5    1
    18     5     6   ar
    19     6     7   ar
    20     7     8   ar
    21     8    11    1
    22    11    12   ar
    23    12    13   ar
    24    13    14   ar
    25    14    15   ar
    26    15    16   ar
    27    16    17    1
    28     8     9   ar
    29     9    10   ar
    30    31    27   ar
    31    10     5   ar
    32    16    11   ar
    33     1     4    1
@<TRIPOS>MOLECULE
*****
 31 33 0 0 0
SMALL
GASTEIGER

@<TRIPOS>ATOM
      1 N          62.3395   88.3304   11.9220 N.am    1  UNL1       -0.2917
      2 C          62.5247   89.8182   11.8746 C.2     1  UNL1        0.2462
      3 O          61.5133   90.6780   11.1763 O.2     1  UNL1       -0.2701
      4 H          63.0033   87.7661   12.3803 H       1  UNL1        0.1502
      5 C          63.7214   90.4461   12.5257 C.ar    1  UNL1        0.0534
      6 C          64.4113   91.6045   11.8684 C.ar    1  UNL1        0.0045
      7 C          65.6079   92.2323   12.5194 C.ar    1  UNL1        0.0002
      8 C          66.1145   91.7019   13.8278 C.ar    1  UNL1        0.0022
      9 C          65.4246   90.5435   14.4851 C.ar    1  UNL1        0.0002
     10 C          64.2280   89.9156   13.8341 C.ar    1  UNL1        0.0045
     11 C          67.3112   92.3298   14.4788 C.ar    1  UNL1        0.0275
     12 C          67.1414   93.1657   15.7127 C.ar    1  UNL1        0.0022
     13 C          68.3381   93.7937   16.3637 C.ar    1  UNL1        0.0001
     14 C          69.7045   93.5856   15.7809 C.ar    1  UNL1        0.0023
     15 C          69.8742   92.7496   14.5470 C.ar    1  UNL1        0.0296
     16 C          68.6776   92.1217   13.8960 C.ar    1  UNL1        0.1401
     17 F          68.8473   91.2858   12.6621 F       1  UNL1       -0.2042
     18 C          61.1429   87.7025   11.2709 C.3     1  UNL1        0.1945
     19 C          59.8213   88.4119   11.2878 C.2     1  UNL1        0.3370
     20 O          59.0296   88.4926   12.5593 O.2     1  UNL1       -0.2482
     21 O          59.2915   89.0405   10.0332 O.3     1  UNL1       -0.4473
     22 C          60.0988   88.9896    8.7700 C.3     1  UNL1        0.2084
     23 C          59.2504   89.3676    6.3437 C.3     1  UNL1        0.0038
     24 C          59.4866   88.4541    7.5097 C.3     1  UNL1        0.0439
     25 C          59.1107   87.0050    7.4153 C.3     1  UNL1        0.0038
     26 C          61.2678   86.3652   10.6031 C.3     1  UNL1        0.1386
     27 N          62.2345   85.3489   11.1346 N.ar    1  UNL1       -0.3055
     28 C          62.4645   85.0225   12.5805 C.ar    1  UNL1        0.0981
     29 C          63.5131   83.9524   12.6530 C.ar    1  UNL1        0.1193
     30 N          63.9312   83.6175   11.2519 N.ar    1  UNL1       -0.2223
     31 C          63.1410   84.4805   10.3135 C.ar    1  UNL1        0.1787
@<TRIPOS>BOND
     1    23    24    1
     2    24    25    1
     3    24    22    1
     4    22    21    1
     5    21    19    1
     6    19    20    2
     7    19    18    1
     8    18    26    1
     9    26    27    1
    10    27    28   ar
    11    28    29   ar
    12    29    30   ar
    13    30    31   ar
    14    18     1    1
    15     1     2   am
    16     2     3    2
    17     2     5    1
    18     5     6   ar
    19     6     7   ar
    20     7     8   ar
    21     8    11    1
    22    11    12   ar
    23    12    13   ar
    24    13    14   ar
    25    14    15   ar
    26    15    16   ar
    27    16    17    1
    28     8     9   ar
    29     9    10   ar
    30    31    27   ar
    31    10     5   ar
    32    16    11   ar
    33     1     4    1
@<TRIPOS>MOLECULE
*****
 31 33 0 0 0
SMALL
GASTEIGER

@<TRIPOS>ATOM
      1 N          64.0650   89.2822   13.6572 N.am    1  UNL1       -0.2917
      2 C          62.7042   89.1854   13.0338 C.2     1  UNL1        0.2462
      3 O          61.5500   89.9333   13.6325 O.2     1  UNL1       -0.2701
      4 H          64.8225   88.7913   13.2643 H       1  UNL1        0.1502
      5 C          62.4975   88.3406   11.8116 C.ar    1  UNL1        0.0534
      6 C          62.6495   86.8507   11.8952 C.ar    1  UNL1        0.0045
      7 C          62.4428   86.0060   10.6730 C.ar    1  UNL1        0.0002
      8 C          62.0841   86.6512    9.3673 C.ar    1  UNL1        0.0022
      9 C          61.9321   88.1411    9.2837 C.ar    1  UNL1        0.0002
     10 C          62.1387   88.9858   10.5058 C.ar    1  UNL1        0.0045
     11 C          61.8774   85.8064    8.1451 C.ar    1  UNL1        0.0275
     12 C          63.0440   85.1118    7.5074 C.ar    1  UNL1        0.0022
     13 C          62.8373   84.2670    6.2852 C.ar    1  UNL1        0.0001
     14 C          61.4640   84.1169    5.7008 C.ar    1  UNL1        0.0023
     15 C          60.2974   84.8115    6.3385 C.ar    1  UNL1        0.0296
     16 C          60.5041   85.6562    7.5606 C.ar    1  UNL1        0.1401
     17 F          59.3376   86.3509    8.1984 F       1  UNL1       -0.2042
     18 C          64.2717   90.1270   14.8794 C.3     1  UNL1        0.1945
     19 C          65.1208   91.3612   14.8032 C.2     1  UNL1        0.3370
     20 O          65.1037   92.3539   15.9277 O.2     1  UNL1       -0.2482
     21 O          65.9870   91.6026   13.6027 O.3     1  UNL1       -0.4473
     22 C          65.6963   92.7551   12.6876 C.3     1  UNL1        0.2084
     23 C          66.6511   92.9306   10.2778 C.3     1  UNL1        0.0038
     24 C          65.5510   92.5236   11.2128 C.3     1  UNL1        0.0439
     25 C          64.3057   91.8851   10.6728 C.3     1  UNL1        0.0038
     26 C          63.6293   89.7376   16.1777 C.3     1  UNL1        0.1386
     27 N          63.4054   88.2897   16.4991 N.ar    1  UNL1       -0.3055
     28 C          62.6932   87.7542   17.7058 C.ar    1  UNL1        0.0981
     29 C          62.7020   86.2566   17.6227 C.ar    1  UNL1        0.1193
     30 N          63.4196   85.8664   16.3646 N.ar    1  UNL1       -0.2223
     31 C          63.8543   87.1229   15.6702 C.ar    1  UNL1        0.1787
@<TRIPOS>BOND
     1    23    24    1
     2    24    25    1
     3    24    22    1
     4    22    21    1
     5    21    19    1
     6    19    20    2
     7    19    18    1
     8    18    26    1
     9    26    27    1
    10    27    28   ar
    11    28    29   ar
    12    29    30   ar
    13    30    31   ar
    14    18     1    1
    15     1     2   am
    16     2     3    2
    17     2     5    1
    18     5     6   ar
    19     6     7   ar
    20     7     8   ar
    21     8    11    1
    22    11    12   ar
    23    12    13   ar
    24    13    14   ar
    25    14    15   ar
    26    15    16   ar
    27    16    17    1
    28     8     9   ar
    29     9    10   ar
    30    31    27   ar
    31    10     5   ar
    32    16    11   ar
    33     1     4    1
