@<TRIPOS>MOLECULE
*****
 37 41 0 0 0
SMALL
GASTEIGER

@<TRIPOS>ATOM
      1 C          61.8688   88.2199   10.1398 C.3     1  UNL1        0.0312
      2 C          62.4569   87.3456   11.2074 C.2     1  UNL1        0.0121
      3 C          62.3752   85.8529   11.0838 C.2     1  UNL1       -0.0081
      4 C          62.9633   84.9787   12.1513 C.2     1  UNL1       -0.0194
      5 C          63.6333   85.5971   13.3425 C.2     1  UNL1        0.0425
      6 C          63.7151   87.0897   13.4661 C.2     1  UNL1        0.2231
      7 N          64.3096   87.9787   14.5179 N.2     1  UNL1       -0.0378
      8 C          64.0888   89.4024   14.1003 C.2     1  UNL1        0.3605
      9 N          63.3579   89.3933   12.7905 N.2     1  UNL1       -0.0547
     10 C          63.1269   87.9640   12.3985 C.3     1  UNL1        0.2975
     11 C          64.5228   90.6212   14.8594 C.3     1  UNL1        0.2246
     12 C          65.5536   91.5410   14.2752 C.2     1  UNL1        0.0436
     13 C          65.9876   92.7598   15.0343 C.2     1  UNL1        0.0288
     14 C          65.3907   93.0589   16.3775 C.2     1  UNL1        0.0896
     15 N          64.3598   92.1391   16.9617 N.am    1  UNL1       -0.1770
     16 C          63.9259   90.9202   16.2026 C.2     1  UNL1        0.2627
     17 O          62.8950   90.0005   16.7868 O.2     1  UNL1       -0.2719
     18 N          66.1506   91.2420   12.9320 N.pl3   1  UNL1       -0.3335
     19 H          65.8171   90.4813   12.4034 H       1  UNL1        0.1466
     20 C          67.2555   92.1020   12.3940 C.3     1  UNL1        0.1136
     21 C          67.2911   92.4523   10.9359 C.3     1  UNL1        0.1486
     22 N          67.1455   93.8814   10.5042 N.ar    1  UNL1       -0.2468
     23 C          67.5109   94.4380    9.1600 C.ar    1  UNL1        0.1081
     24 C          67.2001   95.9054    9.1659 C.ar    1  UNL1        0.0972
     25 CL         67.4099   96.8557    8.0244 Cl      1  UNL1       -0.0789
     26 C          66.6425   96.2558   10.5135 C.ar    1  UNL1        0.1330
     27 N          66.6087   95.0049   11.3407 N.ar    1  UNL1       -0.1667
     28 C          62.8816   83.4860   12.0277 C.3     1  UNL1        0.0252
     29 C          62.3765   82.6648   13.1769 C.3     1  UNL1        0.0217
     30 C          62.2948   81.1722   13.0534 C.3     1  UNL1        0.0724
     31 N          62.7181   80.5007   11.7807 N.3     1  UNL1       -0.2726
     32 C          63.2231   81.3218   10.6315 C.3     1  UNL1        0.0724
     33 C          63.3049   82.8145   10.7550 C.3     1  UNL1        0.0217
     34 C          62.6364   79.0080   11.6570 C.3     1  UNL1        0.0750
     35 C          62.7552   78.3594   10.3097 C.3     1  UNL1        0.0554
     36 C          63.3118   76.9715   10.1918 C.3     1  UNL1        0.1947
     37 F          64.5999   76.7397    9.4590 F       1  UNL1       -0.2343
@<TRIPOS>BOND
     1     1     2    1
     2     2     3    2
     3     3     4    1
     4     4    28    1
     5    28    29    1
     6    29    30    1
     7    30    31    1
     8    31    34    1
     9    34    35    1
    10    35    36    1
    11    36    37    1
    12    31    32    1
    13    32    33    1
    14     4     5    2
    15     5     6    1
    16     6     7    2
    17     7     8    1
    18     8    11    1
    19    11    12    1
    20    12    18    1
    21    18    20    1
    22    20    21    1
    23    21    22    1
    24    22    23   ar
    25    23    24   ar
    26    24    25    1
    27    24    26   ar
    28    26    27   ar
    29    12    13    2
    30    13    14    1
    31    14    15    2
    32    15    16    1
    33    16    17    2
    34     8     9    2
    35     9    10    1
    36    10     2    1
    37    33    28    1
    38    10     6    1
    39    16    11    1
    40    27    22   ar
    41    18    19    1
@<TRIPOS>MOLECULE
*****
 37 41 0 0 0
SMALL
GASTEIGER

@<TRIPOS>ATOM
      1 C          62.9995   88.1002   17.5469 C.3     1  UNL1        0.0312
      2 C          63.4828   88.2944   16.1402 C.2     1  UNL1        0.0121
      3 C          63.9811   89.6381   15.6972 C.2     1  UNL1       -0.0081
      4 C          64.4644   89.8323   14.2906 C.2     1  UNL1       -0.0194
      5 C          64.4495   88.6828   13.3269 C.2     1  UNL1        0.0425
      6 C          63.9512   87.3392   13.7700 C.2     1  UNL1        0.2231
      7 N          63.8188   86.0303   13.0494 N.2     1  UNL1       -0.0378
      8 C          63.2537   85.0271   14.0108 C.2     1  UNL1        0.3605
      9 N          63.0368   85.7160   15.3255 N.2     1  UNL1       -0.0547
     10 C          63.4679   87.1450   15.1767 C.3     1  UNL1        0.2975
     11 C          62.9574   83.5877   13.7103 C.3     1  UNL1        0.2246
     12 C          62.6226   83.1674   12.3098 C.2     1  UNL1        0.0436
     13 C          62.3264   81.7279   12.0094 C.2     1  UNL1        0.0288
     14 C          62.3648   80.7088   13.1093 C.2     1  UNL1        0.0896
     15 N          62.6996   81.1291   14.5098 N.am    1  UNL1       -0.1770
     16 C          62.9959   82.5685   14.8102 C.2     1  UNL1        0.2627
     17 O          63.3306   82.9888   16.2107 O.2     1  UNL1       -0.2719
     18 N          62.5841   84.1864   11.2099 N.pl3   1  UNL1       -0.3335
     19 H          61.9987   84.9740   11.2888 H       1  UNL1        0.1466
     20 C          63.4375   84.0056    9.9896 C.3     1  UNL1        0.1136
     21 C          63.1132   84.7528    8.7301 C.3     1  UNL1        0.1486
     22 N          62.1325   85.8873    8.7626 N.ar    1  UNL1       -0.2468
     23 C          60.9694   86.0741    7.8340 C.ar    1  UNL1        0.1081
     24 C          60.2608   87.3365    8.2269 C.ar    1  UNL1        0.0972
     25 CL         59.0411   87.9056    7.5647 Cl      1  UNL1       -0.0789
     26 C          60.9859   87.9299    9.3981 C.ar    1  UNL1        0.1330
     27 N          62.1428   87.0343    9.7293 N.ar    1  UNL1       -0.1667
     28 C          64.9626   91.1760   13.8475 C.3     1  UNL1        0.0252
     29 C          65.7363   92.0401   14.7988 C.3     1  UNL1        0.0217
     30 C          66.2346   93.3837   14.3557 C.3     1  UNL1        0.0724
     31 N          65.9591   93.8634   12.9614 N.3     1  UNL1       -0.2726
     32 C          65.1854   92.9994   12.0102 C.3     1  UNL1        0.0724
     33 C          64.6871   91.6557   12.4532 C.3     1  UNL1        0.0217
     34 C          66.4573   95.2070   12.5183 C.3     1  UNL1        0.0750
     35 C          66.0874   95.7347   11.1638 C.3     1  UNL1        0.0554
     36 C          67.0051   95.5165    9.9975 C.3     1  UNL1        0.1947
     37 F          67.7054   94.2006    9.8301 F       1  UNL1       -0.2343
@<TRIPOS>BOND
     1     1     2    1
     2     2     3    2
     3     3     4    1
     4     4    28    1
     5    28    29    1
     6    29    30    1
     7    30    31    1
     8    31    34    1
     9    34    35    1
    10    35    36    1
    11    36    37    1
    12    31    32    1
    13    32    33    1
    14     4     5    2
    15     5     6    1
    16     6     7    2
    17     7     8    1
    18     8    11    1
    19    11    12    1
    20    12    18    1
    21    18    20    1
    22    20    21    1
    23    21    22    1
    24    22    23   ar
    25    23    24   ar
    26    24    25    1
    27    24    26   ar
    28    26    27   ar
    29    12    13    2
    30    13    14    1
    31    14    15    2
    32    15    16    1
    33    16    17    2
    34     8     9    2
    35     9    10    1
    36    10     2    1
    37    33    28    1
    38    10     6    1
    39    16    11    1
    40    27    22   ar
    41    18    19    1
@<TRIPOS>MOLECULE
*****
 37 41 0 0 0
SMALL
GASTEIGER

@<TRIPOS>ATOM
      1 C          60.4415   88.3031    9.5299 C.3     1  UNL1        0.0312
      2 C          61.6175   88.4796   10.4441 C.2     1  UNL1        0.0121
      3 C          62.3133   89.8061   10.5235 C.2     1  UNL1       -0.0081
      4 C          63.4893   89.9826   11.4377 C.2     1  UNL1       -0.0194
      5 C          63.9696   88.8326   12.2725 C.2     1  UNL1        0.0425
      6 C          63.2738   87.5061   12.1932 C.2     1  UNL1        0.2231
      7 N          63.5189   86.2009   12.8905 N.2     1  UNL1       -0.0378
      8 C          62.4943   85.2177   12.4072 C.2     1  UNL1        0.3605
      9 N          61.6160   85.9153   11.4113 N.2     1  UNL1       -0.0547
     10 C          62.0978   87.3296   11.2789 C.3     1  UNL1        0.2975
     11 C          62.3699   83.7879   12.8434 C.3     1  UNL1        0.2246
     12 C          61.9827   83.4658   14.2563 C.2     1  UNL1        0.0436
     13 C          61.8582   82.0359   14.6923 C.2     1  UNL1        0.0288
     14 C          62.1210   80.9283   13.7156 C.2     1  UNL1        0.0896
     15 N          62.5082   81.2504   12.3027 N.am    1  UNL1       -0.1770
     16 C          62.6327   82.6803   11.8667 C.2     1  UNL1        0.2627
     17 O          63.0199   83.0024   10.4538 O.2     1  UNL1       -0.2719
     18 N          61.7199   84.5733   15.2331 N.pl3   1  UNL1       -0.3335
     19 H          60.9329   85.1537   15.1191 H       1  UNL1        0.1466
     20 C          62.6561   84.7967   16.3835 C.3     1  UNL1        0.1136
     21 C          62.5775   86.0660   17.1789 C.3     1  UNL1        0.1486
     22 N          63.1269   87.3415   16.6122 N.ar    1  UNL1       -0.2468
     23 C          62.8391   88.7253   17.1142 C.ar    1  UNL1        0.1081
     24 C          63.5949   89.6962   16.2561 C.ar    1  UNL1        0.0972
     25 CL         63.5956   91.1889   16.4044 Cl      1  UNL1       -0.0789
     26 C          64.3497   88.9124   15.2238 C.ar    1  UNL1        0.1330
     27 N          64.0605   87.4571   15.4438 N.ar    1  UNL1       -0.1667
     28 C          64.1851   91.3091   11.5170 C.3     1  UNL1        0.0252
     29 C          64.8215   91.7465   12.8030 C.3     1  UNL1        0.0217
     30 C          65.5173   93.0729   12.8824 C.3     1  UNL1        0.0724
     31 N          65.5767   93.9621   11.6758 N.3     1  UNL1       -0.2726
     32 C          64.9403   93.5248   10.3899 C.3     1  UNL1        0.0724
     33 C          64.2445   92.1983   10.3105 C.3     1  UNL1        0.0217
     34 C          66.2725   95.2886   11.7551 C.3     1  UNL1        0.0750
     35 C          66.1456   96.2706   10.6284 C.3     1  UNL1        0.0554
     36 C          67.1956   96.3244    9.5585 C.3     1  UNL1        0.1947
     37 F          67.9731   95.0905    9.2079 F       1  UNL1       -0.2343
@<TRIPOS>BOND
     1     1     2    1
     2     2     3    2
     3     3     4    1
     4     4    28    1
     5    28    29    1
     6    29    30    1
     7    30    31    1
     8    31    34    1
     9    34    35    1
    10    35    36    1
    11    36    37    1
    12    31    32    1
    13    32    33    1
    14     4     5    2
    15     5     6    1
    16     6     7    2
    17     7     8    1
    18     8    11    1
    19    11    12    1
    20    12    18    1
    21    18    20    1
    22    20    21    1
    23    21    22    1
    24    22    23   ar
    25    23    24   ar
    26    24    25    1
    27    24    26   ar
    28    26    27   ar
    29    12    13    2
    30    13    14    1
    31    14    15    2
    32    15    16    1
    33    16    17    2
    34     8     9    2
    35     9    10    1
    36    10     2    1
    37    33    28    1
    38    10     6    1
    39    16    11    1
    40    27    22   ar
    41    18    19    1
@<TRIPOS>MOLECULE
*****
 37 41 0 0 0
SMALL
GASTEIGER

@<TRIPOS>ATOM
      1 C          60.8357   88.1115   10.9262 C.3     1  UNL1        0.0312
      2 C          62.0128   88.0464   11.8537 C.2     1  UNL1        0.0121
      3 C          62.7360   89.3034   12.2370 C.2     1  UNL1       -0.0081
      4 C          63.9130   89.2384   13.1644 C.2     1  UNL1       -0.0194
      5 C          64.3670   87.9164   13.7087 C.2     1  UNL1        0.0425
      6 C          63.6438   86.6594   13.3254 C.2     1  UNL1        0.2231
      7 N          63.8597   85.2232   13.7004 N.2     1  UNL1       -0.0378
      8 C          62.8161   84.4006   13.0046 C.2     1  UNL1        0.3605
      9 N          61.9551   85.3284   12.1997 N.2     1  UNL1       -0.0547
     10 C          62.4667   86.7244   12.3979 C.3     1  UNL1        0.2975
     11 C          62.6606   82.9115   13.0976 C.3     1  UNL1        0.2246
     12 C          62.6106   82.0832   11.8480 C.2     1  UNL1        0.0436
     13 C          62.4552   80.5942   11.9410 C.2     1  UNL1        0.0288
     14 C          62.3496   79.9334   13.2835 C.2     1  UNL1        0.0896
     15 N          62.3996   80.7617   14.5330 N.am    1  UNL1       -0.1770
     16 C          62.5551   82.2508   14.4400 C.2     1  UNL1        0.2627
     17 O          62.6050   83.0791   15.6896 O.2     1  UNL1       -0.2719
     18 N          62.7161   82.7439   10.5055 N.pl3   1  UNL1       -0.3335
     19 H          61.9342   82.7722    9.9080 H       1  UNL1        0.1466
     20 C          64.0130   83.3614   10.0732 C.3     1  UNL1        0.1136
     21 C          64.0087   84.6015    9.2294 C.3     1  UNL1        0.1486
     22 N          62.8206   84.9205    8.3712 N.ar    1  UNL1       -0.2468
     23 C          61.6490   85.7691    8.7676 C.ar    1  UNL1        0.1081
     24 C          60.6998   85.8200    7.6072 C.ar    1  UNL1        0.0972
     25 CL         59.3948   86.5585    7.5674 Cl      1  UNL1       -0.0789
     26 C          61.2847   85.0029    6.4937 C.ar    1  UNL1        0.1330
     27 N          62.5955   84.4470    6.9658 N.ar    1  UNL1       -0.1667
     28 C          64.6363   90.4955   13.5477 C.3     1  UNL1        0.0252
     29 C          64.9441   90.7739   14.9891 C.3     1  UNL1        0.0217
     30 C          65.6673   92.0309   15.3724 C.3     1  UNL1        0.0724
     31 N          66.0826   93.0096   14.3142 N.3     1  UNL1       -0.2726
     32 C          65.7747   92.7312   12.8728 C.3     1  UNL1        0.0724
     33 C          65.0516   91.4742   12.4895 C.3     1  UNL1        0.0217
     34 C          66.8058   94.2666   14.6974 C.3     1  UNL1        0.0750
     35 C          68.0733   94.1890   15.4958 C.3     1  UNL1        0.0554
     36 C          68.8789   92.9237   15.5032 C.3     1  UNL1        0.1947
     37 F          68.7176   91.9384   16.6226 F       1  UNL1       -0.2343
@<TRIPOS>BOND
     1     1     2    1
     2     2     3    2
     3     3     4    1
     4     4    28    1
     5    28    29    1
     6    29    30    1
     7    30    31    1
     8    31    34    1
     9    34    35    1
    10    35    36    1
    11    36    37    1
    12    31    32    1
    13    32    33    1
    14     4     5    2
    15     5     6    1
    16     6     7    2
    17     7     8    1
    18     8    11    1
    19    11    12    1
    20    12    18    1
    21    18    20    1
    22    20    21    1
    23    21    22    1
    24    22    23   ar
    25    23    24   ar
    26    24    25    1
    27    24    26   ar
    28    26    27   ar
    29    12    13    2
    30    13    14    1
    31    14    15    2
    32    15    16    1
    33    16    17    2
    34     8     9    2
    35     9    10    1
    36    10     2    1
    37    33    28    1
    38    10     6    1
    39    16    11    1
    40    27    22   ar
    41    18    19    1
@<TRIPOS>MOLECULE
*****
 37 41 0 0 0
SMALL
GASTEIGER

@<TRIPOS>ATOM
      1 C          58.9341   89.2796   12.5286 C.3     1  UNL1        0.0312
      2 C          60.2010   88.8274   11.8650 C.2     1  UNL1        0.0121
      3 C          60.1414   87.8994   10.6881 C.2     1  UNL1       -0.0081
      4 C          61.4083   87.4472   10.0246 C.2     1  UNL1       -0.0194
      5 C          62.7350   87.9230   10.5379 C.2     1  UNL1        0.0425
      6 C          62.7947   88.8510   11.7149 C.2     1  UNL1        0.2231
      7 N          63.9475   89.4820   12.4380 N.2     1  UNL1       -0.0378
      8 C          63.3929   90.3243   13.5484 C.2     1  UNL1        0.3605
      9 N          61.8974   90.2137   13.5116 N.2     1  UNL1       -0.0547
     10 C          61.5277   89.3032   12.3784 C.3     1  UNL1        0.2975
     11 C          64.1933   91.1348   14.5244 C.3     1  UNL1        0.2246
     12 C          65.3226   91.9937   14.0376 C.2     1  UNL1        0.0436
     13 C          66.1230   92.8042   15.0136 C.2     1  UNL1        0.0288
     14 C          65.7941   92.7558   16.4763 C.2     1  UNL1        0.0896
     15 N          64.6648   91.8968   16.9631 N.am    1  UNL1       -0.1770
     16 C          63.8644   91.0863   15.9870 C.2     1  UNL1        0.2627
     17 O          62.7352   90.2274   16.4738 O.2     1  UNL1       -0.2719
     18 N          65.6515   92.0422   12.5750 N.pl3   1  UNL1       -0.3335
     19 H          64.9291   92.0140   11.9068 H       1  UNL1        0.1466
     20 C          67.0812   92.1338   12.1303 C.3     1  UNL1        0.1136
     21 C          67.4036   92.5095   10.7144 C.3     1  UNL1        0.1486
     22 N          67.2309   93.9275   10.2569 N.ar    1  UNL1       -0.2468
     23 C          67.5680   94.4623    8.8966 C.ar    1  UNL1        0.1081
     24 C          67.2362   95.9250    8.8783 C.ar    1  UNL1        0.0972
     25 CL         67.4151   96.8552    7.7152 Cl      1  UNL1       -0.0789
     26 C          66.6939   96.2943   10.2271 C.ar    1  UNL1        0.1330
     27 N          66.6907   95.0597   11.0792 N.ar    1  UNL1       -0.1667
     28 C          61.3486   86.5191    8.8475 C.3     1  UNL1        0.0252
     29 C          62.5680   85.7475    8.4383 C.3     1  UNL1        0.0217
     30 C          62.5083   84.8195    7.2613 C.3     1  UNL1        0.0724
     31 N          61.2292   84.6631    6.4936 N.3     1  UNL1       -0.2726
     32 C          60.0097   85.4347    6.9029 C.3     1  UNL1        0.0724
     33 C          60.0694   86.3627    8.0799 C.3     1  UNL1        0.0217
     34 C          61.1694   83.7351    5.3167 C.3     1  UNL1        0.0750
     35 C          61.9266   84.0629    4.0640 C.3     1  UNL1        0.0554
     36 C          61.2088   84.1260    2.7484 C.3     1  UNL1        0.1947
     37 F          61.8172   84.8703    1.5970 F       1  UNL1       -0.2343
@<TRIPOS>BOND
     1     1     2    1
     2     2     3    2
     3     3     4    1
     4     4    28    1
     5    28    29    1
     6    29    30    1
     7    30    31    1
     8    31    34    1
     9    34    35    1
    10    35    36    1
    11    36    37    1
    12    31    32    1
    13    32    33    1
    14     4     5    2
    15     5     6    1
    16     6     7    2
    17     7     8    1
    18     8    11    1
    19    11    12    1
    20    12    18    1
    21    18    20    1
    22    20    21    1
    23    21    22    1
    24    22    23   ar
    25    23    24   ar
    26    24    25    1
    27    24    26   ar
    28    26    27   ar
    29    12    13    2
    30    13    14    1
    31    14    15    2
    32    15    16    1
    33    16    17    2
    34     8     9    2
    35     9    10    1
    36    10     2    1
    37    33    28    1
    38    10     6    1
    39    16    11    1
    40    27    22   ar
    41    18    19    1
@<TRIPOS>MOLECULE
*****
 37 41 0 0 0
SMALL
GASTEIGER

@<TRIPOS>ATOM
      1 C          59.6464   88.9823   12.3291 C.3     1  UNL1        0.0312
      2 C          60.1110   88.5472   10.9708 C.2     1  UNL1        0.0121
      3 C          59.7312   89.3433    9.7576 C.2     1  UNL1       -0.0081
      4 C          60.1957   88.9083    8.3994 C.2     1  UNL1       -0.0194
      5 C          61.0402   87.6770    8.2543 C.2     1  UNL1        0.0425
      6 C          61.4200   86.8809    9.4675 C.2     1  UNL1        0.2231
      7 N          62.2357   85.6332    9.6342 N.2     1  UNL1       -0.0378
      8 C          62.2753   85.2972   11.0955 C.2     1  UNL1        0.3605
      9 N          61.4840   86.3372   11.8320 N.2     1  UNL1       -0.0547
     10 C          60.9554   87.3160   10.8257 C.3     1  UNL1        0.2975
     11 C          62.9821   84.1267   11.7123 C.3     1  UNL1        0.2246
     12 C          62.9063   83.9000   13.1931 C.2     1  UNL1        0.0436
     13 C          63.6132   82.7294   13.8097 C.2     1  UNL1        0.0288
     14 C          64.3958   81.7856   12.9456 C.2     1  UNL1        0.0896
     15 N          64.4715   82.0122   11.4648 N.am    1  UNL1       -0.1770
     16 C          63.7647   83.1828   10.8481 C.2     1  UNL1        0.2627
     17 O          63.8404   83.4095    9.3673 O.2     1  UNL1       -0.2719
     18 N          62.1238   84.8438   14.0573 N.pl3   1  UNL1       -0.3335
     19 H          61.4697   85.4566   13.6500 H       1  UNL1        0.1466
     20 C          62.3378   84.8539   15.5419 C.3     1  UNL1        0.1136
     21 C          63.4805   85.6276   16.1297 C.3     1  UNL1        0.1486
     22 N          63.5987   87.1009   15.8744 N.ar    1  UNL1       -0.2468
     23 C          64.3454   87.7425   14.7426 C.ar    1  UNL1        0.1081
     24 C          64.1991   89.2295   14.8748 C.ar    1  UNL1        0.0972
     25 CL         64.7868   90.2585   13.9550 Cl      1  UNL1       -0.0789
     26 C          63.3621   89.5070   16.0881 C.ar    1  UNL1        0.1330
     27 N          62.9910   88.1914   16.7060 N.ar    1  UNL1       -0.1667
     28 C          59.8159   89.7045    7.1861 C.3     1  UNL1        0.0252
     29 C          58.3707   89.8708    6.8204 C.3     1  UNL1        0.0217
     30 C          57.9908   90.6669    5.6072 C.3     1  UNL1        0.0724
     31 N          59.0562   91.2968    4.7598 N.3     1  UNL1       -0.2726
     32 C          60.5014   91.1306    5.1255 C.3     1  UNL1        0.0724
     33 C          60.8812   90.3344    6.3387 C.3     1  UNL1        0.0217
     34 C          58.6765   92.0930    3.5466 C.3     1  UNL1        0.0750
     35 C          59.7363   92.7856    2.7421 C.3     1  UNL1        0.0554
     36 C          59.5327   93.0163    1.2740 C.3     1  UNL1        0.1947
     37 F          59.9654   91.9756    0.2842 F       1  UNL1       -0.2343
@<TRIPOS>BOND
     1     1     2    1
     2     2     3    2
     3     3     4    1
     4     4    28    1
     5    28    29    1
     6    29    30    1
     7    30    31    1
     8    31    34    1
     9    34    35    1
    10    35    36    1
    11    36    37    1
    12    31    32    1
    13    32    33    1
    14     4     5    2
    15     5     6    1
    16     6     7    2
    17     7     8    1
    18     8    11    1
    19    11    12    1
    20    12    18    1
    21    18    20    1
    22    20    21    1
    23    21    22    1
    24    22    23   ar
    25    23    24   ar
    26    24    25    1
    27    24    26   ar
    28    26    27   ar
    29    12    13    2
    30    13    14    1
    31    14    15    2
    32    15    16    1
    33    16    17    2
    34     8     9    2
    35     9    10    1
    36    10     2    1
    37    33    28    1
    38    10     6    1
    39    16    11    1
    40    27    22   ar
    41    18    19    1
@<TRIPOS>MOLECULE
*****
 37 41 0 0 0
SMALL
GASTEIGER

@<TRIPOS>ATOM
      1 C          58.8685   89.3303   12.3574 C.3     1  UNL1        0.0312
      2 C          60.1435   88.8533   11.7274 C.2     1  UNL1        0.0121
      3 C          60.0970   87.9174   10.5562 C.2     1  UNL1       -0.0081
      4 C          61.3719   87.4405    9.9261 C.2     1  UNL1       -0.0194
      5 C          62.6935   87.8994   10.4673 C.2     1  UNL1        0.0425
      6 C          62.7400   88.8353   11.6386 C.2     1  UNL1        0.2231
      7 N          63.8852   89.4538   12.3842 N.2     1  UNL1       -0.0378
      8 C          63.3180   90.3131   13.4751 C.2     1  UNL1        0.3605
      9 N          61.8222   90.2256   13.4037 N.2     1  UNL1       -0.0547
     10 C          61.4650   89.3123   12.2686 C.3     1  UNL1        0.2975
     11 C          64.1078   91.1184   14.4638 C.3     1  UNL1        0.2246
     12 C          63.8401   90.9746   15.9327 C.2     1  UNL1        0.0436
     13 C          64.6300   91.7800   16.9213 C.2     1  UNL1        0.0288
     14 C          65.6875   92.7292   16.4412 C.2     1  UNL1        0.0896
     15 N          65.9553   92.8730   14.9723 N.am    1  UNL1       -0.1770
     16 C          65.1654   92.0676   13.9836 C.2     1  UNL1        0.2627
     17 O          65.4331   92.2114   12.5147 O.2     1  UNL1       -0.2719
     18 N          62.7825   90.0254   16.4129 N.pl3   1  UNL1       -0.3335
     19 H          61.8464   90.3233   16.4776 H       1  UNL1        0.1466
     20 C          63.1512   88.6225   16.7946 C.3     1  UNL1        0.1136
     21 C          63.9762   87.7842   15.8637 C.3     1  UNL1        0.1486
     22 N          63.6153   86.3472   15.6294 N.ar    1  UNL1       -0.2468
     23 C          64.2920   85.4133   14.6702 C.ar    1  UNL1        0.1081
     24 C          63.6093   84.0807   14.7612 C.ar    1  UNL1        0.0972
     25 CL         63.9631   82.8533   13.9749 Cl      1  UNL1       -0.0789
     26 C          62.5108   84.1910   15.7766 C.ar    1  UNL1        0.1330
     27 N          62.5145   85.5918   16.3132 N.ar    1  UNL1       -0.1667
     28 C          61.3253   86.5045    8.7548 C.3     1  UNL1        0.0252
     29 C          60.0490   86.3266    7.9871 C.3     1  UNL1        0.0217
     30 C          60.0024   85.3907    6.8159 C.3     1  UNL1        0.0724
     31 N          61.2322   84.6326    6.4123 N.3     1  UNL1       -0.2726
     32 C          62.5085   84.8105    7.1800 C.3     1  UNL1        0.0724
     33 C          62.5551   85.7464    8.3512 C.3     1  UNL1        0.0217
     34 C          61.1857   83.6967    5.2410 C.3     1  UNL1        0.0750
     35 C          61.9061   84.0463    3.9726 C.3     1  UNL1        0.0554
     36 C          61.1478   84.1453    2.6822 C.3     1  UNL1        0.1947
     37 F          61.7697   84.8220    1.4968 F       1  UNL1       -0.2343
@<TRIPOS>BOND
     1     1     2    1
     2     2     3    2
     3     3     4    1
     4     4    28    1
     5    28    29    1
     6    29    30    1
     7    30    31    1
     8    31    34    1
     9    34    35    1
    10    35    36    1
    11    36    37    1
    12    31    32    1
    13    32    33    1
    14     4     5    2
    15     5     6    1
    16     6     7    2
    17     7     8    1
    18     8    11    1
    19    11    12    1
    20    12    18    1
    21    18    20    1
    22    20    21    1
    23    21    22    1
    24    22    23   ar
    25    23    24   ar
    26    24    25    1
    27    24    26   ar
    28    26    27   ar
    29    12    13    2
    30    13    14    1
    31    14    15    2
    32    15    16    1
    33    16    17    2
    34     8     9    2
    35     9    10    1
    36    10     2    1
    37    33    28    1
    38    10     6    1
    39    16    11    1
    40    27    22   ar
    41    18    19    1
@<TRIPOS>MOLECULE
*****
 37 41 0 0 0
SMALL
GASTEIGER

@<TRIPOS>ATOM
      1 C          58.9881   89.6670   12.2723 C.3     1  UNL1        0.0312
      2 C          60.4693   89.4918   12.1133 C.2     1  UNL1        0.0121
      3 C          61.4134   90.2445   13.0031 C.2     1  UNL1       -0.0081
      4 C          62.8945   90.0693   12.8441 C.2     1  UNL1       -0.0194
      5 C          63.4317   89.1413   11.7951 C.2     1  UNL1        0.0425
      6 C          62.4876   88.3885   10.9052 C.2     1  UNL1        0.2231
      7 N          62.7218   87.4114    9.7915 N.2     1  UNL1       -0.0378
      8 C          61.3854   86.9828    9.2622 C.2     1  UNL1        0.3605
      9 N          60.3251   87.6949   10.0489 N.2     1  UNL1       -0.0547
     10 C          61.0064   88.5637   11.0643 C.3     1  UNL1        0.2975
     11 C          61.1503   86.0123    8.1428 C.3     1  UNL1        0.2246
     12 C          62.2284   85.0468    7.7485 C.2     1  UNL1        0.0436
     13 C          61.9933   84.0764    6.6291 C.2     1  UNL1        0.0288
     14 C          60.6802   84.0715    5.9040 C.2     1  UNL1        0.0896
     15 N          59.6022   85.0371    6.2983 N.am    1  UNL1       -0.1770
     16 C          59.8373   86.0075    7.4177 C.2     1  UNL1        0.2627
     17 O          58.7592   86.9730    7.8120 O.2     1  UNL1       -0.2719
     18 N          63.5415   85.0516    8.4736 N.pl3   1  UNL1       -0.3335
     19 H          64.2131   85.7424    8.2710 H       1  UNL1        0.1466
     20 C          63.8314   84.0040    9.5072 C.3     1  UNL1        0.1136
     21 C          62.9718   83.9010   10.7322 C.3     1  UNL1        0.1486
     22 N          63.5466   84.2191   12.0807 N.ar    1  UNL1       -0.2468
     23 C          63.3209   85.4808   12.8599 C.ar    1  UNL1        0.1081
     24 C          64.0829   85.3728   14.1475 C.ar    1  UNL1        0.0972
     25 CL         64.1385   86.4110   15.2288 Cl      1  UNL1       -0.0789
     26 C          64.7793   84.0445   14.1641 C.ar    1  UNL1        0.1330
     27 N          64.4479   83.3314   12.8867 N.ar    1  UNL1       -0.1667
     28 C          63.8387   90.8222   13.7340 C.3     1  UNL1        0.0252
     29 C          63.6426   90.8048   15.2210 C.3     1  UNL1        0.0217
     30 C          64.5867   91.5576   16.1109 C.3     1  UNL1        0.0724
     31 N          65.7269   92.3278   15.5138 N.3     1  UNL1       -0.2726
     32 C          65.9231   92.3452   14.0268 C.3     1  UNL1        0.0724
     33 C          64.9790   91.5924   13.1369 C.3     1  UNL1        0.0217
     34 C          66.6711   93.0806   16.4036 C.3     1  UNL1        0.0750
     35 C          67.9626   93.6075   15.8518 C.3     1  UNL1        0.0554
     36 C          69.1431   92.6940   15.7034 C.3     1  UNL1        0.1947
     37 F          69.7250   92.4350   14.3454 F       1  UNL1       -0.2343
@<TRIPOS>BOND
     1     1     2    1
     2     2     3    2
     3     3     4    1
     4     4    28    1
     5    28    29    1
     6    29    30    1
     7    30    31    1
     8    31    34    1
     9    34    35    1
    10    35    36    1
    11    36    37    1
    12    31    32    1
    13    32    33    1
    14     4     5    2
    15     5     6    1
    16     6     7    2
    17     7     8    1
    18     8    11    1
    19    11    12    1
    20    12    18    1
    21    18    20    1
    22    20    21    1
    23    21    22    1
    24    22    23   ar
    25    23    24   ar
    26    24    25    1
    27    24    26   ar
    28    26    27   ar
    29    12    13    2
    30    13    14    1
    31    14    15    2
    32    15    16    1
    33    16    17    2
    34     8     9    2
    35     9    10    1
    36    10     2    1
    37    33    28    1
    38    10     6    1
    39    16    11    1
    40    27    22   ar
    41    18    19    1
@<TRIPOS>MOLECULE
*****
 37 41 0 0 0
SMALL
GASTEIGER

@<TRIPOS>ATOM
      1 C          62.3161   85.6502   17.5284 C.3     1  UNL1        0.0312
      2 C          63.0061   86.2105   16.3201 C.2     1  UNL1        0.0121
      3 C          63.5090   87.6237   16.3315 C.2     1  UNL1       -0.0081
      4 C          64.1990   88.1840   15.1233 C.2     1  UNL1       -0.0194
      5 C          64.3861   87.3312   13.9035 C.2     1  UNL1        0.0425
      6 C          63.8832   85.9181   13.8921 C.2     1  UNL1        0.2231
      7 N          63.9230   84.8471   12.8426 N.2     1  UNL1       -0.0378
      8 C          63.2577   83.6248   13.4024 C.2     1  UNL1        0.3605
      9 N          62.8066   83.9404   14.7977 N.2     1  UNL1       -0.0547
     10 C          63.1932   85.3578   15.1004 C.3     1  UNL1        0.2975
     11 C          63.0753   82.3165   12.6915 C.3     1  UNL1        0.2246
     12 C          63.4003   82.2046   11.2315 C.2     1  UNL1        0.0436
     13 C          63.2180   80.8963   10.5207 C.2     1  UNL1        0.0288
     14 C          62.7107   79.7000   11.2700 C.2     1  UNL1        0.0896
     15 N          62.3857   79.8119   12.7301 N.am    1  UNL1       -0.1770
     16 C          62.5680   81.1202   13.4408 C.2     1  UNL1        0.2627
     17 O          62.2430   81.2321   14.9009 O.2     1  UNL1       -0.2719
     18 N          63.9077   83.4008   10.4821 N.pl3   1  UNL1       -0.3335
     19 H          64.8763   83.5590   10.4052 H       1  UNL1        0.1466
     20 C          62.9392   84.3561    9.8501 C.3     1  UNL1        0.1136
     21 C          61.8705   85.0008   10.6821 C.3     1  UNL1        0.1486
     22 N          61.1592   86.2204   10.1755 N.ar    1  UNL1       -0.2468
     23 C          60.7773   86.4899    8.7502 C.ar    1  UNL1        0.1081
     24 C          60.0869   87.8207    8.6991 C.ar    1  UNL1        0.0972
     25 CL         59.5377   88.4824    7.4701 Cl      1  UNL1       -0.0789
     26 C          60.0422   88.3736   10.0927 C.ar    1  UNL1        0.1330
     27 N          60.7050   87.3845   11.0052 N.ar    1  UNL1       -0.1667
     28 C          64.7019   89.5972   15.1348 C.3     1  UNL1        0.0252
     29 C          64.1119   90.5956   16.0862 C.3     1  UNL1        0.0217
     30 C          64.6148   92.0087   16.0977 C.3     1  UNL1        0.0724
     31 N          65.7076   92.4235   15.1577 N.3     1  UNL1       -0.2726
     32 C          66.2976   91.4251   14.2062 C.3     1  UNL1        0.0724
     33 C          65.7947   90.0120   14.1948 C.3     1  UNL1        0.0217
     34 C          66.2105   93.8366   15.1691 C.3     1  UNL1        0.0750
     35 C          67.6731   94.1136   14.9842 C.3     1  UNL1        0.0554
     36 C          68.6636   93.6219   15.9977 C.3     1  UNL1        0.1947
     37 F          68.5341   92.2386   16.5632 F       1  UNL1       -0.2343
@<TRIPOS>BOND
     1     1     2    1
     2     2     3    2
     3     3     4    1
     4     4    28    1
     5    28    29    1
     6    29    30    1
     7    30    31    1
     8    31    34    1
     9    34    35    1
    10    35    36    1
    11    36    37    1
    12    31    32    1
    13    32    33    1
    14     4     5    2
    15     5     6    1
    16     6     7    2
    17     7     8    1
    18     8    11    1
    19    11    12    1
    20    12    18    1
    21    18    20    1
    22    20    21    1
    23    21    22    1
    24    22    23   ar
    25    23    24   ar
    26    24    25    1
    27    24    26   ar
    28    26    27   ar
    29    12    13    2
    30    13    14    1
    31    14    15    2
    32    15    16    1
    33    16    17    2
    34     8     9    2
    35     9    10    1
    36    10     2    1
    37    33    28    1
    38    10     6    1
    39    16    11    1
    40    27    22   ar
    41    18    19    1
