@<TRIPOS>MOLECULE
*****
 27 30 0 0 0
SMALL
GASTEIGER

@<TRIPOS>ATOM
      1 O          65.7862   91.6008   14.9668 O.2     1  UNL1       -0.2719
      2 C          65.5253   92.0673   13.5652 C.2     1  UNL1        0.2570
      3 N          64.5908   91.2971   12.6801 N.am    1  UNL1       -0.2738
      4 C          63.9173   90.0603   13.1964 C.3     1  UNL1        0.1149
      5 C          62.9828   89.2901   12.3112 C.3     1  UNL1        0.1121
      6 N          62.7220   89.7566   10.9097 N.pl3   1  UNL1       -0.3071
      7 C          63.3955   90.9934   10.3934 C.3     1  UNL1        0.1121
      8 C          64.3300   91.7636   11.2785 C.3     1  UNL1        0.1149
      9 C          61.7875   88.9864   10.0245 C.2     1  UNL1        0.0295
     10 C          60.4470   89.5587    9.6707 C.2     1  UNL1        0.0120
     11 C          59.5125   88.7885    8.7854 C.2     1  UNL1        0.0216
     12 C          59.9187   87.4459    8.2540 C.2     1  UNL1        0.1008
     13 N          59.2144   86.4626    7.3668 N.2     1  UNL1       -0.1482
     14 N          60.1197   85.2826    7.1724 N.2     1  UNL1       -0.1467
     15 C          61.3836   85.5365    7.9394 C.2     1  UNL1        0.1198
     16 C          61.2593   86.8735    8.6079 C.2     1  UNL1        0.0238
     17 C          62.1937   87.6438    9.4931 C.3     1  UNL1        0.0705
     18 C          66.1989   93.3041   13.0489 C.3     1  UNL1        0.2104
     19 O          66.1985   94.5578   13.8724 O.3     1  UNL1       -0.3719
     20 H          65.7240   94.3986   14.7033 H       1  UNL1        0.2114
     21 C          66.8728   93.2872   11.7089 C.ar    1  UNL1        0.0237
     22 C          67.7705   92.1450   11.3354 C.ar    1  UNL1       -0.0006
     23 C          68.4445   92.1279    9.9954 C.ar    1  UNL1       -0.0002
     24 C          68.2208   93.2531    9.0290 C.ar    1  UNL1        0.0008
     25 C          67.3231   94.3953    9.4025 C.ar    1  UNL1        0.0112
     26 C          66.6491   94.4123   10.7425 C.ar    1  UNL1        0.0564
     27 CL         65.7514   95.5545   11.1160 Cl      1  UNL1       -0.0825
@<TRIPOS>BOND
     1     1     2    2
     2     2    18    1
     3    18    19    1
     4    18    21    1
     5    21    22   ar
     6    22    23   ar
     7    23    24   ar
     8    24    25   ar
     9    25    26   ar
    10    26    27    1
    11     2     3   am
    12     3     4    1
    13     4     5    1
    14     5     6    1
    15     6     9    1
    16     9    10    2
    17    10    11    1
    18    11    12    2
    19    12    13    1
    20    13    14    2
    21    14    15    1
    22    15    16    2
    23    16    17    1
    24     6     7    1
    25     7     8    1
    26    26    21   ar
    27     8     3    1
    28    17     9    1
    29    16    12    1
    30    19    20    1
@<TRIPOS>MOLECULE
*****
 27 30 0 0 0
SMALL
GASTEIGER

@<TRIPOS>ATOM
      1 O          61.8278   90.8875   10.6964 O.2     1  UNL1       -0.2719
      2 C          62.6609   90.1925   11.7322 C.2     1  UNL1        0.2570
      3 N          62.6960   88.6938   11.7846 N.am    1  UNL1       -0.2738
      4 C          61.8980   87.8901   10.8011 C.3     1  UNL1        0.1149
      5 C          61.9331   86.3914   10.8535 C.3     1  UNL1        0.1121
      6 N          62.7662   85.6965   11.8892 N.pl3   1  UNL1       -0.3071
      7 C          63.5642   86.5001   12.8727 C.3     1  UNL1        0.1121
      8 C          63.5291   87.9988   12.8204 C.3     1  UNL1        0.1149
      9 C          62.8013   84.1977   11.9416 C.2     1  UNL1        0.0295
     10 C          63.4074   83.4217   10.8102 C.2     1  UNL1        0.0120
     11 C          63.4425   81.9230   10.8626 C.2     1  UNL1        0.0216
     12 C          62.8716   81.2004   12.0465 C.2     1  UNL1        0.1008
     13 N          62.7646   79.7409   12.3757 N.2     1  UNL1       -0.1482
     14 N          62.0924   79.6150   13.7108 N.2     1  UNL1       -0.1467
     15 C          61.7839   80.9966   14.2066 C.2     1  UNL1        0.1198
     16 C          62.2655   81.9765   13.1781 C.2     1  UNL1        0.0238
     17 C          62.2303   83.4751   13.1256 C.3     1  UNL1        0.0705
     18 C          63.4589   90.9961   12.7157 C.3     1  UNL1        0.2104
     19 O          62.9916   91.1226   14.1354 O.3     1  UNL1       -0.3719
     20 H          62.1646   90.6286   14.2488 H       1  UNL1        0.2114
     21 C          64.7243   91.6733   12.2794 C.ar    1  UNL1        0.0237
     22 C          64.7936   92.3406   10.9378 C.ar    1  UNL1       -0.0006
     23 C          66.0589   93.0178   10.5015 C.ar    1  UNL1       -0.0002
     24 C          67.2549   93.0277   11.4067 C.ar    1  UNL1        0.0008
     25 C          67.1856   92.3604   12.7483 C.ar    1  UNL1        0.0112
     26 C          65.9202   91.6832   13.1846 C.ar    1  UNL1        0.0564
     27 CL         65.8509   91.0159   14.5262 Cl      1  UNL1       -0.0825
@<TRIPOS>BOND
     1     1     2    2
     2     2    18    1
     3    18    19    1
     4    18    21    1
     5    21    22   ar
     6    22    23   ar
     7    23    24   ar
     8    24    25   ar
     9    25    26   ar
    10    26    27    1
    11     2     3   am
    12     3     4    1
    13     4     5    1
    14     5     6    1
    15     6     9    1
    16     9    10    2
    17    10    11    1
    18    11    12    2
    19    12    13    1
    20    13    14    2
    21    14    15    1
    22    15    16    2
    23    16    17    1
    24     6     7    1
    25     7     8    1
    26    26    21   ar
    27     8     3    1
    28    17     9    1
    29    16    12    1
    30    19    20    1
@<TRIPOS>MOLECULE
*****
 27 30 0 0 0
SMALL
GASTEIGER

@<TRIPOS>ATOM
      1 O          63.2514   91.3583   12.5556 O.2     1  UNL1       -0.2719
      2 C          63.7172   90.3797   13.5927 C.2     1  UNL1        0.2570
      3 N          63.6016   88.9059   13.3387 N.am    1  UNL1       -0.2738
      4 C          63.0202   88.4107   12.0476 C.3     1  UNL1        0.1149
      5 C          62.9046   86.9368   11.7937 C.3     1  UNL1        0.1121
      6 N          63.3703   85.9583   12.8307 N.pl3   1  UNL1       -0.3071
      7 C          63.9517   86.4535   14.1217 C.3     1  UNL1        0.1121
      8 C          64.0673   87.9273   14.3757 C.3     1  UNL1        0.1149
      9 C          63.2547   84.4844   12.5767 C.2     1  UNL1        0.0295
     10 C          63.8189   83.8936   11.3188 C.2     1  UNL1        0.0120
     11 C          63.7033   82.4197   11.0649 C.2     1  UNL1        0.0216
     12 C          63.0235   81.5368   12.0690 C.2     1  UNL1        0.1008
     13 N          62.7611   80.0601   12.0921 N.2     1  UNL1       -0.1482
     14 N          62.0347   79.7383   13.3644 N.2     1  UNL1       -0.1467
     15 C          61.8482   81.0161   14.1276 C.2     1  UNL1        0.1198
     16 C          62.4593   82.1277   13.3269 C.2     1  UNL1        0.0238
     17 C          62.5749   83.6015   13.5808 C.3     1  UNL1        0.0705
     18 C          64.2985   90.8749   14.8837 C.3     1  UNL1        0.2104
     19 O          63.5336   90.7087   16.1632 O.3     1  UNL1       -0.3719
     20 H          62.6902   90.2658   15.9806 H       1  UNL1        0.2114
     21 C          65.6448   91.5363   14.8951 C.ar    1  UNL1        0.0237
     22 C          66.6117   91.2883   13.7755 C.ar    1  UNL1       -0.0006
     23 C          67.9580   91.9497   13.7868 C.ar    1  UNL1       -0.0002
     24 C          68.3374   92.8590   14.9178 C.ar    1  UNL1        0.0008
     25 C          67.3705   93.1070   16.0375 C.ar    1  UNL1        0.0112
     26 C          66.0242   92.4456   16.0261 C.ar    1  UNL1        0.0564
     27 CL         65.0573   92.6935   17.1457 Cl      1  UNL1       -0.0825
@<TRIPOS>BOND
     1     1     2    2
     2     2    18    1
     3    18    19    1
     4    18    21    1
     5    21    22   ar
     6    22    23   ar
     7    23    24   ar
     8    24    25   ar
     9    25    26   ar
    10    26    27    1
    11     2     3   am
    12     3     4    1
    13     4     5    1
    14     5     6    1
    15     6     9    1
    16     9    10    2
    17    10    11    1
    18    11    12    2
    19    12    13    1
    20    13    14    2
    21    14    15    1
    22    15    16    2
    23    16    17    1
    24     6     7    1
    25     7     8    1
    26    26    21   ar
    27     8     3    1
    28    17     9    1
    29    16    12    1
    30    19    20    1
@<TRIPOS>MOLECULE
*****
 27 30 0 0 0
SMALL
GASTEIGER

@<TRIPOS>ATOM
      1 O          59.6671   87.9974   11.8143 O.2     1  UNL1       -0.2719
      2 C          60.6741   88.6416   10.9082 C.2     1  UNL1        0.2570
      3 N          61.8028   89.4407   11.4891 N.am    1  UNL1       -0.2738
      4 C          61.9245   89.5956   12.9761 C.3     1  UNL1        0.1149
      5 C          63.0533   90.3948   13.5570 C.3     1  UNL1        0.1121
      6 N          64.0602   91.0389   12.6509 N.pl3   1  UNL1       -0.3071
      7 C          63.9385   90.8839   11.1639 C.3     1  UNL1        0.1121
      8 C          62.8098   90.0848   10.5830 C.3     1  UNL1        0.1149
      9 C          65.1890   91.8380   13.2318 C.2     1  UNL1        0.0295
     10 C          65.5540   93.1645   12.6344 C.2     1  UNL1        0.0120
     11 C          66.6827   93.9637   13.2153 C.2     1  UNL1        0.0216
     12 C          67.4465   93.4361   14.3936 C.2     1  UNL1        0.1008
     13 N          68.5984   93.9952   15.1749 N.2     1  UNL1       -0.1482
     14 N          68.9453   93.0141   16.2552 N.2     1  UNL1       -0.1467
     15 C          68.0078   91.8487   16.1416 C.2     1  UNL1        0.1198
     16 C          67.0814   92.1095   14.9910 C.2     1  UNL1        0.0238
     17 C          65.9527   91.3105   14.4101 C.3     1  UNL1        0.0705
     18 C          60.5525   88.4866    9.4212 C.3     1  UNL1        0.2104
     19 O          59.9055   89.5660    8.6051 O.3     1  UNL1       -0.3719
     20 H          59.6239   90.2878    9.1888 H       1  UNL1        0.2114
     21 C          61.0779   87.2521    8.7504 C.ar    1  UNL1        0.0237
     22 C          62.4721   86.7788    9.0365 C.ar    1  UNL1       -0.0006
     23 C          62.9976   85.5443    8.3657 C.ar    1  UNL1       -0.0002
     24 C          62.1287   84.7831    7.4088 C.ar    1  UNL1        0.0008
     25 C          60.7344   85.2564    7.1226 C.ar    1  UNL1        0.0112
     26 C          60.2090   86.4910    7.7935 C.ar    1  UNL1        0.0564
     27 CL         58.8148   86.9643    7.5073 Cl      1  UNL1       -0.0825
@<TRIPOS>BOND
     1     1     2    2
     2     2    18    1
     3    18    19    1
     4    18    21    1
     5    21    22   ar
     6    22    23   ar
     7    23    24   ar
     8    24    25   ar
     9    25    26   ar
    10    26    27    1
    11     2     3   am
    12     3     4    1
    13     4     5    1
    14     5     6    1
    15     6     9    1
    16     9    10    2
    17    10    11    1
    18    11    12    2
    19    12    13    1
    20    13    14    2
    21    14    15    1
    22    15    16    2
    23    16    17    1
    24     6     7    1
    25     7     8    1
    26    26    21   ar
    27     8     3    1
    28    17     9    1
    29    16    12    1
    30    19    20    1
@<TRIPOS>MOLECULE
*****
 27 30 0 0 0
SMALL
GASTEIGER

@<TRIPOS>ATOM
      1 O          64.6500   90.2813   15.2194 O.2     1  UNL1       -0.2719
      2 C          64.0251   89.8644   13.9210 C.2     1  UNL1        0.2570
      3 N          63.8440   88.4084   13.6093 N.am    1  UNL1       -0.2738
      4 C          64.2878   87.3693   14.5959 C.3     1  UNL1        0.1149
      5 C          64.1066   85.9132   14.2841 C.3     1  UNL1        0.1121
      6 N          63.4818   85.4963   12.9858 N.pl3   1  UNL1       -0.3071
      7 C          63.0380   86.5354   11.9992 C.3     1  UNL1        0.1121
      8 C          63.2191   87.9914   12.3110 C.3     1  UNL1        0.1149
      9 C          63.3006   84.0403   12.6740 C.2     1  UNL1        0.0295
     10 C          63.7832   83.4877   11.3657 C.2     1  UNL1        0.0120
     11 C          63.6021   82.0316   11.0539 C.2     1  UNL1        0.0216
     12 C          62.9382   81.1282   12.0505 C.2     1  UNL1        0.1008
     13 N          62.6234   79.6619   12.0222 N.2     1  UNL1       -0.1482
     14 N          61.9462   79.3083   13.3130 N.2     1  UNL1       -0.1467
     15 C          61.8424   80.5560   14.1391 C.2     1  UNL1        0.1198
     16 C          62.4556   81.6808   13.3588 C.2     1  UNL1        0.0238
     17 C          62.6367   83.1369   13.6705 C.3     1  UNL1        0.0705
     18 C          63.5813   90.9034   12.9344 C.3     1  UNL1        0.2104
     19 O          62.1384   90.9900   12.5344 O.3     1  UNL1       -0.3719
     20 H          61.6317   90.3075   13.0019 H       1  UNL1        0.2114
     21 C          64.5807   91.8560   12.3479 C.ar    1  UNL1        0.0237
     22 C          65.5990   92.5129   13.2320 C.ar    1  UNL1       -0.0006
     23 C          66.5984   93.4655   12.6456 C.ar    1  UNL1       -0.0002
     24 C          66.5795   93.7611   11.1751 C.ar    1  UNL1        0.0008
     25 C          65.5612   93.1042   10.2911 C.ar    1  UNL1        0.0112
     26 C          64.5618   92.1516   10.8776 C.ar    1  UNL1        0.0564
     27 CL         63.5435   91.4947    9.9935 Cl      1  UNL1       -0.0825
@<TRIPOS>BOND
     1     1     2    2
     2     2    18    1
     3    18    19    1
     4    18    21    1
     5    21    22   ar
     6    22    23   ar
     7    23    24   ar
     8    24    25   ar
     9    25    26   ar
    10    26    27    1
    11     2     3   am
    12     3     4    1
    13     4     5    1
    14     5     6    1
    15     6     9    1
    16     9    10    2
    17    10    11    1
    18    11    12    2
    19    12    13    1
    20    13    14    2
    21    14    15    1
    22    15    16    2
    23    16    17    1
    24     6     7    1
    25     7     8    1
    26    26    21   ar
    27     8     3    1
    28    17     9    1
    29    16    12    1
    30    19    20    1
@<TRIPOS>MOLECULE
*****
 27 30 0 0 0
SMALL
GASTEIGER

@<TRIPOS>ATOM
      1 O          63.5325   90.4889   17.2265 O.2     1  UNL1       -0.2719
      2 C          63.8269   90.1253   15.8014 C.2     1  UNL1        0.2570
      3 N          63.7398   88.6947   15.3590 N.am    1  UNL1       -0.2738
      4 C          63.3582   87.6277   16.3418 C.3     1  UNL1        0.1149
      5 C          63.2711   86.1970   15.8993 C.3     1  UNL1        0.1121
      6 N          63.5655   85.8334   14.4742 N.pl3   1  UNL1       -0.3071
      7 C          63.9470   86.9004   13.4914 C.3     1  UNL1        0.1121
      8 C          64.0342   88.3311   13.9338 C.3     1  UNL1        0.1149
      9 C          63.4783   84.4028   14.0318 C.2     1  UNL1        0.0295
     10 C          64.5576   83.8170   13.1705 C.2     1  UNL1        0.0120
     11 C          64.4705   82.3864   12.7280 C.2     1  UNL1        0.0216
     12 C          63.3040   81.5415   13.1469 C.2     1  UNL1        0.1008
     13 N          62.9491   80.1111   12.8679 N.2     1  UNL1       -0.1482
     14 N          61.6505   79.8128   13.5568 N.2     1  UNL1       -0.1467
     15 C          61.2027   81.0589   14.2616 C.2     1  UNL1        0.1198
     16 C          62.2247   82.1273   14.0083 C.2     1  UNL1        0.0238
     17 C          62.3118   83.5579   14.4507 C.3     1  UNL1        0.0705
     18 C          64.2085   91.1923   14.8186 C.3     1  UNL1        0.2104
     19 O          63.2367   91.6173   13.7580 O.3     1  UNL1       -0.3719
     20 H          62.4165   91.1073   13.8479 H       1  UNL1        0.2114
     21 C          65.5620   91.8343   14.8964 C.ar    1  UNL1        0.0237
     22 C          66.1107   92.2688   16.2231 C.ar    1  UNL1       -0.0006
     23 C          67.4641   92.9107   16.3011 C.ar    1  UNL1       -0.0002
     24 C          68.2688   93.1183   15.0523 C.ar    1  UNL1        0.0008
     25 C          67.7201   92.6838   13.7256 C.ar    1  UNL1        0.0112
     26 C          66.3666   92.0418   13.6478 C.ar    1  UNL1        0.0564
     27 CL         65.8179   91.6074   12.3211 Cl      1  UNL1       -0.0825
@<TRIPOS>BOND
     1     1     2    2
     2     2    18    1
     3    18    19    1
     4    18    21    1
     5    21    22   ar
     6    22    23   ar
     7    23    24   ar
     8    24    25   ar
     9    25    26   ar
    10    26    27    1
    11     2     3   am
    12     3     4    1
    13     4     5    1
    14     5     6    1
    15     6     9    1
    16     9    10    2
    17    10    11    1
    18    11    12    2
    19    12    13    1
    20    13    14    2
    21    14    15    1
    22    15    16    2
    23    16    17    1
    24     6     7    1
    25     7     8    1
    26    26    21   ar
    27     8     3    1
    28    17     9    1
    29    16    12    1
    30    19    20    1
@<TRIPOS>MOLECULE
*****
 27 30 0 0 0
SMALL
GASTEIGER

@<TRIPOS>ATOM
      1 O          62.6426   91.1471   11.4007 O.2     1  UNL1       -0.2719
      2 C          63.2552   90.3865   12.5393 C.2     1  UNL1        0.2570
      3 N          63.1670   88.8896   12.5748 N.am    1  UNL1       -0.2738
      4 C          62.4662   88.1531   11.4719 C.3     1  UNL1        0.1149
      5 C          62.3781   86.6561   11.5075 C.3     1  UNL1        0.1121
      6 N          62.9907   85.8956   12.6460 N.pl3   1  UNL1       -0.3071
      7 C          63.6915   86.6320   13.7490 C.3     1  UNL1        0.1121
      8 C          63.7797   88.1290   13.7134 C.3     1  UNL1        0.1149
      9 C          62.9025   84.3986   12.6817 C.2     1  UNL1        0.0295
     10 C          62.6151   83.6948   13.9746 C.2     1  UNL1        0.0120
     11 C          62.5270   82.1977   14.0103 C.2     1  UNL1        0.0216
     12 C          62.7263   81.4046   12.7528 C.2     1  UNL1        0.1008
     13 N          62.6985   79.9296   12.4815 N.2     1  UNL1       -0.1482
     14 N          62.9687   79.7219   11.0208 N.2     1  UNL1       -0.1467
     15 C          63.1635   81.0685   10.3893 C.2     1  UNL1        0.1198
     16 C          63.0137   82.1085   11.4598 C.2     1  UNL1        0.0238
     17 C          63.1018   83.6055   11.4242 C.3     1  UNL1        0.0705
     18 C          63.9560   91.1229   13.6422 C.3     1  UNL1        0.2104
     19 O          63.2035   91.5136   14.8795 O.3     1  UNL1       -0.3719
     20 H          62.2830   91.2169   14.8053 H       1  UNL1        0.2114
     21 C          65.4095   91.4687   13.5077 C.ar    1  UNL1        0.0237
     22 C          66.3563   91.1807   14.6350 C.ar    1  UNL1       -0.0006
     23 C          67.8097   91.5264   14.5006 C.ar    1  UNL1       -0.0002
     24 C          68.3164   92.1600   13.2389 C.ar    1  UNL1        0.0008
     25 C          67.3696   92.4479   12.1117 C.ar    1  UNL1        0.0112
     26 C          65.9161   92.1022   12.2461 C.ar    1  UNL1        0.0564
     27 CL         64.9694   92.3902   11.1188 Cl      1  UNL1       -0.0825
@<TRIPOS>BOND
     1     1     2    2
     2     2    18    1
     3    18    19    1
     4    18    21    1
     5    21    22   ar
     6    22    23   ar
     7    23    24   ar
     8    24    25   ar
     9    25    26   ar
    10    26    27    1
    11     2     3   am
    12     3     4    1
    13     4     5    1
    14     5     6    1
    15     6     9    1
    16     9    10    2
    17    10    11    1
    18    11    12    2
    19    12    13    1
    20    13    14    2
    21    14    15    1
    22    15    16    2
    23    16    17    1
    24     6     7    1
    25     7     8    1
    26    26    21   ar
    27     8     3    1
    28    17     9    1
    29    16    12    1
    30    19    20    1
@<TRIPOS>MOLECULE
*****
 27 30 0 0 0
SMALL
GASTEIGER

@<TRIPOS>ATOM
      1 O          64.0494   90.8830   17.6183 O.2     1  UNL1       -0.2719
      2 C          63.7598   90.4057   16.2261 C.2     1  UNL1        0.2570
      3 N          64.3806   91.1006   15.0506 N.am    1  UNL1       -0.2738
      4 C          65.2910   92.2728   15.2674 C.3     1  UNL1        0.1149
      5 C          65.9118   92.9677   14.0919 C.3     1  UNL1        0.1121
      6 N          65.6222   92.4904   12.6997 N.pl3   1  UNL1       -0.3071
      7 C          64.7118   91.3182   12.4830 C.3     1  UNL1        0.1121
      8 C          64.0910   90.6233   13.6584 C.3     1  UNL1        0.1149
      9 C          66.2430   93.1853   11.5242 C.2     1  UNL1        0.0295
     10 C          67.1595   92.4324   10.6061 C.2     1  UNL1        0.0120
     11 C          67.7803   93.1272    9.4305 C.2     1  UNL1        0.0216
     12 C          67.4845   94.5751    9.1732 C.2     1  UNL1        0.1008
     13 N          67.9462   95.5190    8.1028 N.2     1  UNL1       -0.1482
     14 N          67.3150   96.8553    8.3594 N.2     1  UNL1       -0.1467
     15 C          66.4633   96.7373    9.5885 C.2     1  UNL1        0.1198
     16 C          66.5680   95.3281   10.0914 C.2     1  UNL1        0.0238
     17 C          65.9473   94.6331   11.2669 C.3     1  UNL1        0.0705
     18 C          62.8493   89.2335   16.0093 C.3     1  UNL1        0.2104
     19 O          61.3630   89.4329   15.9842 O.3     1  UNL1       -0.3719
     20 H          61.1602   90.3713   16.1225 H       1  UNL1        0.2114
     21 C          63.4255   87.8618   15.8177 C.ar    1  UNL1        0.0237
     22 C          64.2333   87.5522   14.5923 C.ar    1  UNL1       -0.0006
     23 C          64.8095   86.1806   14.4007 C.ar    1  UNL1       -0.0002
     24 C          64.5777   85.1186   15.4343 C.ar    1  UNL1        0.0008
     25 C          63.7699   85.4282   16.6597 C.ar    1  UNL1        0.0112
     26 C          63.1937   86.7999   16.8513 C.ar    1  UNL1        0.0564
     27 CL         62.3859   87.1095   18.0766 Cl      1  UNL1       -0.0825
@<TRIPOS>BOND
     1     1     2    2
     2     2    18    1
     3    18    19    1
     4    18    21    1
     5    21    22   ar
     6    22    23   ar
     7    23    24   ar
     8    24    25   ar
     9    25    26   ar
    10    26    27    1
    11     2     3   am
    12     3     4    1
    13     4     5    1
    14     5     6    1
    15     6     9    1
    16     9    10    2
    17    10    11    1
    18    11    12    2
    19    12    13    1
    20    13    14    2
    21    14    15    1
    22    15    16    2
    23    16    17    1
    24     6     7    1
    25     7     8    1
    26    26    21   ar
    27     8     3    1
    28    17     9    1
    29    16    12    1
    30    19    20    1
@<TRIPOS>MOLECULE
*****
 27 30 0 0 0
SMALL
GASTEIGER

@<TRIPOS>ATOM
      1 O          65.0792   90.2267   15.1802 O.2     1  UNL1       -0.2719
      2 C          64.2974   89.7765   13.9818 C.2     1  UNL1        0.2570
      3 N          64.0263   88.3168   13.7683 N.am    1  UNL1       -0.2738
      4 C          64.5369   87.3072   14.7532 C.3     1  UNL1        0.1149
      5 C          64.2656   85.8474   14.5396 C.3     1  UNL1        0.1121
      6 N          63.4839   85.3973   13.3413 N.pl3   1  UNL1       -0.3071
      7 C          62.9733   86.4068   12.3564 C.3     1  UNL1        0.1121
      8 C          63.2445   87.8666   12.5699 C.3     1  UNL1        0.1149
      9 C          63.2127   83.9375   13.1277 C.2     1  UNL1        0.0295
     10 C          62.7186   83.0923   14.2641 C.2     1  UNL1        0.0120
     11 C          62.4474   81.6325   14.0505 C.2     1  UNL1        0.0216
     12 C          62.6703   81.0180   12.7005 C.2     1  UNL1        0.1008
     13 N          62.4911   79.6179   12.1931 N.2     1  UNL1       -0.1482
     14 N          62.8744   79.5977   10.7431 N.2     1  UNL1       -0.1467
     15 C          63.2906   80.9854   10.3543 C.2     1  UNL1        0.1198
     16 C          63.1644   81.8632   11.5640 C.2     1  UNL1        0.0238
     17 C          63.4356   83.3230   11.7777 C.3     1  UNL1        0.0705
     18 C          63.7868   90.7861   12.9969 C.3     1  UNL1        0.2104
     19 O          62.3337   90.8033   12.6256 O.3     1  UNL1       -0.3719
     20 H          61.8683   90.1023   13.1083 H       1  UNL1        0.2114
     21 C          64.7296   91.7785   12.3832 C.ar    1  UNL1        0.0237
     22 C          64.7851   91.9375   10.8927 C.ar    1  UNL1       -0.0006
     23 C          65.7278   92.9299   10.2790 C.ar    1  UNL1       -0.0002
     24 C          66.6149   93.7631   11.1558 C.ar    1  UNL1        0.0008
     25 C          66.5593   93.6040   12.6463 C.ar    1  UNL1        0.0112
     26 C          65.6166   92.6116   13.2600 C.ar    1  UNL1        0.0564
     27 CL         65.5611   92.4525   14.7504 Cl      1  UNL1       -0.0825
@<TRIPOS>BOND
     1     1     2    2
     2     2    18    1
     3    18    19    1
     4    18    21    1
     5    21    22   ar
     6    22    23   ar
     7    23    24   ar
     8    24    25   ar
     9    25    26   ar
    10    26    27    1
    11     2     3   am
    12     3     4    1
    13     4     5    1
    14     5     6    1
    15     6     9    1
    16     9    10    2
    17    10    11    1
    18    11    12    2
    19    12    13    1
    20    13    14    2
    21    14    15    1
    22    15    16    2
    23    16    17    1
    24     6     7    1
    25     7     8    1
    26    26    21   ar
    27     8     3    1
    28    17     9    1
    29    16    12    1
    30    19    20    1
