@<TRIPOS>MOLECULE
*****
 34 37 0 0 0
SMALL
GASTEIGER

@<TRIPOS>ATOM
      1 C          60.9881   89.3657   10.5857 C.ar    1  UNL1        0.1391
      2 C          61.4781   90.1687    9.4174 C.ar    1  UNL1        0.0369
      3 C          62.6658   91.0715    9.5733 C.ar    1  UNL1        0.0031
      4 C          63.3634   91.1713   10.8974 C.ar    1  UNL1       -0.0001
      5 C          64.5512   92.0741   11.0532 C.ar    1  UNL1       -0.0024
      6 C          65.2488   92.1739   12.3773 C.ar    1  UNL1       -0.0004
      7 C          64.7587   91.3708   13.5457 C.ar    1  UNL1       -0.0024
      8 C          63.5710   90.4680   13.3898 C.ar    1  UNL1       -0.0002
      9 C          62.8734   90.3682   12.0657 C.ar    1  UNL1        0.0030
     10 C          61.6857   89.4655   11.9099 C.ar    1  UNL1        0.0369
     11 O          59.8003   88.4628   10.4299 O.3     1  UNL1       -0.4706
     12 C          59.8726   87.2804    9.5099 C.3     1  UNL1        0.2320
     13 C          63.2131   84.2960    9.9401 C.ar    1  UNL1       -0.0111
     14 C          62.8531   84.8286    8.5848 C.ar    1  UNL1       -0.0039
     15 C          61.7396   85.8234    8.4414 C.ar    1  UNL1       -0.0010
     16 C          60.9862   86.2855    9.6533 C.ar    1  UNL1        0.0211
     17 C          61.3462   85.7529   11.0086 C.ar    1  UNL1       -0.0010
     18 C          62.4596   84.7582   11.1519 C.ar    1  UNL1       -0.0039
     19 C          64.3266   83.3012   10.0834 C.3     1  UNL1        0.1359
     20 C          64.1209   82.0571   10.8958 C.2     1  UNL1        0.3216
     21 O          63.4221   80.8747   10.2929 O.2     1  UNL1       -0.2497
     22 C          63.7817   81.3306   13.3671 C.3     1  UNL1        0.2556
     23 O          64.6141   81.9956   12.3111 O.3     1  UNL1       -0.4442
     24 C          66.4365   93.0767   12.5332 C.3     1  UNL1        0.1240
     25 N          67.2874   92.9907   13.7655 N.ar    1  UNL1       -0.3045
     26 C          67.1739   93.8663   14.9781 C.ar    1  UNL1        0.0983
     27 C          68.2175   93.4308   15.9636 C.ar    1  UNL1        0.1193
     28 N          68.9760   92.2860   15.3601 N.ar    1  UNL1       -0.2223
     29 C          68.4011   92.0141   14.0016 C.ar    1  UNL1        0.1788
     30 C          66.7734   94.0655   11.4566 C.3     1  UNL1        0.0827
     31 C          66.2766   95.4775   11.5531 C.3     1  UNL1        0.0197
     32 N          67.6071   93.6422   10.2837 N.3     1  UNL1       -0.2696
     33 C          67.8881   94.6119    9.1743 C.3     1  UNL1        0.0897
     34 C          68.1597   92.2491   10.2201 C.3     1  UNL1        0.0897
@<TRIPOS>BOND
     1    22    23    1
     2    23    20    1
     3    20    21    2
     4    20    19    1
     5    19    13    1
     6    13    14   ar
     7    14    15   ar
     8    15    16   ar
     9    16    12    1
    10    12    11    1
    11    11     1    1
    12     1     2   ar
    13     2     3   ar
    14     3     4   ar
    15     4     5   ar
    16     5     6   ar
    17     6    24    1
    18    24    30    1
    19    30    31    1
    20    30    32    1
    21    32    33    1
    22    32    34    1
    23    24    25    1
    24    25    26   ar
    25    26    27   ar
    26    27    28   ar
    27    28    29   ar
    28     6     7   ar
    29     7     8   ar
    30     8     9   ar
    31     9    10   ar
    32    16    17   ar
    33    17    18   ar
    34    18    13   ar
    35    10     1   ar
    36     9     4   ar
    37    29    25   ar
@<TRIPOS>MOLECULE
*****
 34 37 0 0 0
SMALL
GASTEIGER

@<TRIPOS>ATOM
      1 C          60.8673   89.2077   11.0922 C.ar    1  UNL1        0.1391
      2 C          61.2442   89.1619   12.5433 C.ar    1  UNL1        0.0369
      3 C          62.3969   89.9802   13.0449 C.ar    1  UNL1        0.0031
      4 C          63.1726   90.8444   12.0955 C.ar    1  UNL1       -0.0001
      5 C          64.3253   91.6627   12.5972 C.ar    1  UNL1       -0.0024
      6 C          65.1011   92.5269   11.6478 C.ar    1  UNL1       -0.0004
      7 C          64.7241   92.5727   10.1966 C.ar    1  UNL1       -0.0024
      8 C          63.5715   91.7544    9.6949 C.ar    1  UNL1       -0.0002
      9 C          62.7957   90.8902   10.6444 C.ar    1  UNL1        0.0030
     10 C          61.6431   90.0719   10.1427 C.ar    1  UNL1        0.0369
     11 O          59.7146   88.3894   10.5904 O.3     1  UNL1       -0.4706
     12 C          59.9323   87.3683    9.5134 C.3     1  UNL1        0.2320
     13 C          63.2193   84.3234    9.9309 C.ar    1  UNL1       -0.0111
     14 C          62.4560   84.7737   11.1411 C.ar    1  UNL1       -0.0039
     15 C          61.3603   85.7886   11.0019 C.ar    1  UNL1       -0.0010
     16 C          61.0280   86.3533    9.6526 C.ar    1  UNL1        0.0211
     17 C          61.7914   85.9030    8.4424 C.ar    1  UNL1       -0.0010
     18 C          62.8870   84.8881    8.5816 C.ar    1  UNL1       -0.0039
     19 C          64.3150   83.3084   10.0701 C.3     1  UNL1        0.1359
     20 C          64.0892   82.0676   10.8819 C.2     1  UNL1        0.3216
     21 O          63.3373   80.9116   10.2917 O.2     1  UNL1       -0.2497
     22 C          63.7758   81.3673   13.3642 C.3     1  UNL1        0.2556
     23 O          64.6153   81.9827   12.2841 O.3     1  UNL1       -0.4442
     24 C          66.2537   93.3452   12.1494 C.3     1  UNL1        0.1240
     25 N          66.8939   93.0121   13.4644 N.ar    1  UNL1       -0.3045
     26 C          66.6155   93.6844   14.7761 C.ar    1  UNL1        0.0983
     27 C          67.4745   93.0360   15.8209 C.ar    1  UNL1        0.1193
     28 N          68.2838   91.9629   15.1550 N.ar    1  UNL1       -0.2223
     29 C          67.9250   91.9481   13.6986 C.ar    1  UNL1        0.1788
     30 C          66.7662   94.4968   11.3361 C.3     1  UNL1        0.0827
     31 C          66.4260   95.9035   11.7302 C.3     1  UNL1        0.0197
     32 N          67.6188   94.2415   10.1287 N.3     1  UNL1       -0.2696
     33 C          67.7320   95.2842    9.0564 C.3     1  UNL1        0.0897
     34 C          68.3583   92.9434    9.9936 C.3     1  UNL1        0.0897
@<TRIPOS>BOND
     1    22    23    1
     2    23    20    1
     3    20    21    2
     4    20    19    1
     5    19    13    1
     6    13    14   ar
     7    14    15   ar
     8    15    16   ar
     9    16    12    1
    10    12    11    1
    11    11     1    1
    12     1     2   ar
    13     2     3   ar
    14     3     4   ar
    15     4     5   ar
    16     5     6   ar
    17     6    24    1
    18    24    30    1
    19    30    31    1
    20    30    32    1
    21    32    33    1
    22    32    34    1
    23    24    25    1
    24    25    26   ar
    25    26    27   ar
    26    27    28   ar
    27    28    29   ar
    28     6     7   ar
    29     7     8   ar
    30     8     9   ar
    31     9    10   ar
    32    16    17   ar
    33    17    18   ar
    34    18    13   ar
    35    10     1   ar
    36     9     4   ar
    37    29    25   ar
@<TRIPOS>MOLECULE
*****
 34 37 0 0 0
SMALL
GASTEIGER

@<TRIPOS>ATOM
      1 C          61.0085   89.3419   10.5508 C.ar    1  UNL1        0.1391
      2 C          61.5173   90.1911    9.4239 C.ar    1  UNL1        0.0369
      3 C          62.7036   91.0846    9.6346 C.ar    1  UNL1        0.0031
      4 C          63.3810   91.1288   10.9722 C.ar    1  UNL1       -0.0001
      5 C          64.5673   92.0224   11.1829 C.ar    1  UNL1       -0.0024
      6 C          65.2447   92.0667   12.5205 C.ar    1  UNL1       -0.0004
      7 C          64.7358   91.2174   13.6474 C.ar    1  UNL1       -0.0024
      8 C          63.5495   90.3240   13.4367 C.ar    1  UNL1       -0.0002
      9 C          62.8721   90.2797   12.0991 C.ar    1  UNL1        0.0030
     10 C          61.6859   89.3862   11.8884 C.ar    1  UNL1        0.0369
     11 O          59.8221   88.4484   10.3401 O.3     1  UNL1       -0.4706
     12 C          59.9232   87.2738    9.4127 C.3     1  UNL1        0.2320
     13 C          63.2478   84.2842    9.9221 C.ar    1  UNL1       -0.0111
     14 C          62.4584   84.7384   11.1140 C.ar    1  UNL1       -0.0039
     15 C          61.3502   85.7349   10.9442 C.ar    1  UNL1       -0.0010
     16 C          61.0314   86.2773    9.5826 C.ar    1  UNL1        0.0211
     17 C          61.8208   85.8231    8.3907 C.ar    1  UNL1       -0.0010
     18 C          62.9290   84.8266    8.5604 C.ar    1  UNL1       -0.0039
     19 C          64.3560   83.2877   10.0919 C.3     1  UNL1        0.1359
     20 C          64.1367   82.0559   10.9192 C.2     1  UNL1        0.3216
     21 O          63.3795   80.8938   10.3481 O.2     1  UNL1       -0.2497
     22 C          63.7309   81.9432   13.4830 C.3     1  UNL1        0.2556
     23 O          64.6746   81.9861   12.3177 O.3     1  UNL1       -0.4442
     24 C          66.4310   92.9601   12.7312 C.3     1  UNL1        0.1240
     25 N          66.5467   94.2459   11.9674 N.ar    1  UNL1       -0.3045
     26 C          66.8838   94.3794   10.5119 C.ar    1  UNL1        0.0983
     27 C          66.8910   95.8399   10.1698 C.ar    1  UNL1        0.1193
     28 N          66.5583   96.6090   11.4139 N.ar    1  UNL1       -0.2223
     29 C          66.3455   95.6238   12.5249 C.ar    1  UNL1        0.1788
     30 C          67.5017   92.5679   13.7059 C.3     1  UNL1        0.0827
     31 C          68.6183   91.6660   13.2705 C.3     1  UNL1        0.0197
     32 N          67.4556   93.0775   15.1159 N.3     1  UNL1       -0.2696
     33 C          66.2947   92.7322   16.0007 C.3     1  UNL1        0.0897
     34 C          68.5706   93.9326   15.6411 C.3     1  UNL1        0.0897
@<TRIPOS>BOND
     1    22    23    1
     2    23    20    1
     3    20    21    2
     4    20    19    1
     5    19    13    1
     6    13    14   ar
     7    14    15   ar
     8    15    16   ar
     9    16    12    1
    10    12    11    1
    11    11     1    1
    12     1     2   ar
    13     2     3   ar
    14     3     4   ar
    15     4     5   ar
    16     5     6   ar
    17     6    24    1
    18    24    30    1
    19    30    31    1
    20    30    32    1
    21    32    33    1
    22    32    34    1
    23    24    25    1
    24    25    26   ar
    25    26    27   ar
    26    27    28   ar
    27    28    29   ar
    28     6     7   ar
    29     7     8   ar
    30     8     9   ar
    31     9    10   ar
    32    16    17   ar
    33    17    18   ar
    34    18    13   ar
    35    10     1   ar
    36     9     4   ar
    37    29    25   ar
@<TRIPOS>MOLECULE
*****
 34 37 0 0 0
SMALL
GASTEIGER

@<TRIPOS>ATOM
      1 C          64.1404   90.4476   14.7552 C.ar    1  UNL1        0.1391
      2 C          63.4450   90.5609   13.4310 C.ar    1  UNL1        0.0369
      3 C          63.1178   89.3243   12.6475 C.ar    1  UNL1        0.0031
      4 C          63.4861   87.9745   13.1883 C.ar    1  UNL1       -0.0001
      5 C          63.1589   86.7379   12.4047 C.ar    1  UNL1       -0.0024
      6 C          63.5271   85.3881   12.9455 C.ar    1  UNL1       -0.0004
      7 C          64.2226   85.2749   14.2698 C.ar    1  UNL1       -0.0024
      8 C          64.5497   86.5115   15.0532 C.ar    1  UNL1       -0.0002
      9 C          64.1815   87.8613   14.5125 C.ar    1  UNL1        0.0030
     10 C          64.5086   89.0978   15.2959 C.ar    1  UNL1        0.0369
     11 O          64.4675   91.6842   15.5387 O.3     1  UNL1       -0.4706
     12 C          65.7713   92.3912   15.3144 C.3     1  UNL1        0.2320
     13 C          67.7839   92.1780   11.2952 C.ar    1  UNL1       -0.0111
     14 C          68.4889   91.6636   12.5152 C.ar    1  UNL1       -0.0039
     15 C          67.8180   91.7346   13.8549 C.ar    1  UNL1       -0.0010
     16 C          66.4422   92.3201   13.9746 C.ar    1  UNL1        0.0211
     17 C          65.7373   92.8346   12.7546 C.ar    1  UNL1       -0.0010
     18 C          66.4082   92.7635   11.4149 C.ar    1  UNL1       -0.0039
     19 C          68.4549   92.1069    9.9554 C.3     1  UNL1        0.1359
     20 C          68.4376   93.2980    9.0438 C.2     1  UNL1        0.3216
     21 O          68.4960   93.1056    7.5574 O.2     1  UNL1       -0.2497
     22 C          67.2573   95.6070    9.2025 C.3     1  UNL1        0.2556
     23 O          68.3618   94.6813    9.6187 O.3     1  UNL1       -0.4442
     24 C          63.2000   84.1515   12.1620 C.3     1  UNL1        0.1240
     25 N          62.6903   82.9298   12.8673 N.ar    1  UNL1       -0.3045
     26 C          62.5088   81.5712   12.2579 C.ar    1  UNL1        0.0983
     27 C          61.9789   80.6538   13.3198 C.ar    1  UNL1        0.1193
     28 N          61.8328   81.4454   14.5855 N.ar    1  UNL1       -0.2223
     29 C          62.2725   82.8520   14.3059 C.ar    1  UNL1        0.1788
     30 C          63.3826   84.1367   10.6732 C.3     1  UNL1        0.0827
     31 C          64.3392   83.1674   10.0445 C.3     1  UNL1        0.0197
     32 N          62.6085   85.0912    9.8132 N.3     1  UNL1       -0.2696
     33 C          63.1450   85.4968    8.4724 C.3     1  UNL1        0.0897
     34 C          61.2979   85.6402   10.2939 C.3     1  UNL1        0.0897
@<TRIPOS>BOND
     1    22    23    1
     2    23    20    1
     3    20    21    2
     4    20    19    1
     5    19    13    1
     6    13    14   ar
     7    14    15   ar
     8    15    16   ar
     9    16    12    1
    10    12    11    1
    11    11     1    1
    12     1     2   ar
    13     2     3   ar
    14     3     4   ar
    15     4     5   ar
    16     5     6   ar
    17     6    24    1
    18    24    30    1
    19    30    31    1
    20    30    32    1
    21    32    33    1
    22    32    34    1
    23    24    25    1
    24    25    26   ar
    25    26    27   ar
    26    27    28   ar
    27    28    29   ar
    28     6     7   ar
    29     7     8   ar
    30     8     9   ar
    31     9    10   ar
    32    16    17   ar
    33    17    18   ar
    34    18    13   ar
    35    10     1   ar
    36     9     4   ar
    37    29    25   ar
@<TRIPOS>MOLECULE
*****
 34 37 0 0 0
SMALL
GASTEIGER

@<TRIPOS>ATOM
      1 C          60.3413   87.4412    8.2468 C.ar    1  UNL1        0.1391
      2 C          59.8607   87.9481    9.5742 C.ar    1  UNL1        0.0369
      3 C          60.3966   87.3535   10.8427 C.ar    1  UNL1        0.0031
      4 C          61.4132   86.2521   10.7838 C.ar    1  UNL1       -0.0001
      5 C          61.9491   85.6576   12.0525 C.ar    1  UNL1       -0.0024
      6 C          62.9657   84.5561   11.9936 C.ar    1  UNL1       -0.0004
      7 C          63.4463   84.0492   10.6661 C.ar    1  UNL1       -0.0024
      8 C          62.9103   84.6438    9.3976 C.ar    1  UNL1       -0.0002
      9 C          61.8938   85.7452    9.4564 C.ar    1  UNL1        0.0030
     10 C          61.3578   86.3398    8.1879 C.ar    1  UNL1        0.0369
     11 O          59.8053   88.0357    6.9781 O.3     1  UNL1       -0.4706
     12 C          59.1004   89.3593    7.0095 C.3     1  UNL1        0.2320
     13 C          59.8216   92.3707    3.7442 C.ar    1  UNL1       -0.0111
     14 C          60.9713   91.5967    4.3180 C.ar    1  UNL1       -0.0039
     15 C          60.7309   90.5930    5.4064 C.ar    1  UNL1       -0.0010
     16 C          59.3408   90.3631    5.9210 C.ar    1  UNL1        0.0211
     17 C          58.1912   91.1371    5.3472 C.ar    1  UNL1       -0.0010
     18 C          58.4316   92.1409    4.2588 C.ar    1  UNL1       -0.0039
     19 C          60.0621   93.3745    2.6558 C.3     1  UNL1        0.1359
     20 C          60.8782   92.9977    1.4550 C.2     1  UNL1        0.3216
     21 O          60.2835   92.1288    0.3866 O.2     1  UNL1       -0.2497
     22 C          63.4197   92.6890    1.8972 C.3     1  UNL1        0.2556
     23 O          62.2889   93.4898    1.3225 O.3     1  UNL1       -0.4442
     24 C          63.5016   83.9616   13.2621 C.3     1  UNL1        0.1240
     25 N          63.1657   82.5461   13.6275 N.ar    1  UNL1       -0.3045
     26 C          61.7911   82.0055   13.8891 C.ar    1  UNL1        0.0983
     27 C          61.9212   80.5480   14.2187 C.ar    1  UNL1        0.1193
     28 N          63.3761   80.1877   14.1608 N.ar    1  UNL1       -0.2223
     29 C          64.1452   81.4226   13.7954 C.ar    1  UNL1        0.1788
     30 C          64.3736   84.7826   14.1654 C.3     1  UNL1        0.0827
     31 C          65.8649   84.6311   14.1089 C.3     1  UNL1        0.0197
     32 N          63.7543   85.7549   15.1250 N.3     1  UNL1       -0.2696
     33 C          64.1019   87.2118   15.0455 C.3     1  UNL1        0.0897
     34 C          62.7872   85.2702   16.1643 C.3     1  UNL1        0.0897
@<TRIPOS>BOND
     1    22    23    1
     2    23    20    1
     3    20    21    2
     4    20    19    1
     5    19    13    1
     6    13    14   ar
     7    14    15   ar
     8    15    16   ar
     9    16    12    1
    10    12    11    1
    11    11     1    1
    12     1     2   ar
    13     2     3   ar
    14     3     4   ar
    15     4     5   ar
    16     5     6   ar
    17     6    24    1
    18    24    30    1
    19    30    31    1
    20    30    32    1
    21    32    33    1
    22    32    34    1
    23    24    25    1
    24    25    26   ar
    25    26    27   ar
    26    27    28   ar
    27    28    29   ar
    28     6     7   ar
    29     7     8   ar
    30     8     9   ar
    31     9    10   ar
    32    16    17   ar
    33    17    18   ar
    34    18    13   ar
    35    10     1   ar
    36     9     4   ar
    37    29    25   ar
@<TRIPOS>MOLECULE
*****
 34 37 0 0 0
SMALL
GASTEIGER

@<TRIPOS>ATOM
      1 C          60.1406   87.5832    8.0151 C.ar    1  UNL1        0.1391
      2 C          59.6918   88.0887    9.3542 C.ar    1  UNL1        0.0369
      3 C          60.2199   87.4588   10.6089 C.ar    1  UNL1        0.0031
      4 C          61.1967   86.3236   10.5246 C.ar    1  UNL1       -0.0001
      5 C          61.7247   85.6937   11.7794 C.ar    1  UNL1       -0.0024
      6 C          62.7015   84.5585   11.6951 C.ar    1  UNL1       -0.0004
      7 C          63.1502   84.0530   10.3559 C.ar    1  UNL1       -0.0024
      8 C          62.6221   84.6829    9.1012 C.ar    1  UNL1       -0.0002
      9 C          61.6454   85.8181    9.1855 C.ar    1  UNL1        0.0030
     10 C          61.1173   86.4480    7.9308 C.ar    1  UNL1        0.0369
     11 O          59.6125   88.2131    6.7603 O.3     1  UNL1       -0.4706
     12 C          59.0590   89.6067    6.7961 C.3     1  UNL1        0.2320
     13 C          60.0093   92.4913    3.4756 C.ar    1  UNL1       -0.0111
     14 C          61.1044   91.6767    4.0978 C.ar    1  UNL1       -0.0039
     15 C          60.7877   90.7152    5.2046 C.ar    1  UNL1       -0.0010
     16 C          59.3758   90.5683    5.6893 C.ar    1  UNL1        0.0211
     17 C          58.2807   91.3829    5.0671 C.ar    1  UNL1       -0.0010
     18 C          58.5974   92.3444    3.9603 C.ar    1  UNL1       -0.0039
     19 C          60.3261   93.4529    2.3687 C.3     1  UNL1        0.1359
     20 C          60.9398   92.9537    1.0943 C.2     1  UNL1        0.3216
     21 O          60.1520   92.0612    0.1818 O.2     1  UNL1       -0.2497
     22 C          63.4616   93.1059    1.7004 C.3     1  UNL1        0.2556
     23 O          62.3413   93.3471    0.7325 O.3     1  UNL1       -0.4442
     24 C          63.2295   83.9286   12.9498 C.3     1  UNL1        0.1240
     25 N          63.3174   84.7327   14.2131 N.ar    1  UNL1       -0.3045
     26 C          64.3005   85.8306   14.4928 C.ar    1  UNL1        0.0983
     27 C          64.0283   86.3565   15.8710 C.ar    1  UNL1        0.1193
     28 N          62.8770   85.5836   16.4430 N.ar    1  UNL1       -0.2223
     29 C          62.4377   84.5801   15.4183 C.ar    1  UNL1        0.1788
     30 C          63.6698   82.4946   12.9414 C.3     1  UNL1        0.0827
     31 C          65.1207   82.1566   12.7674 C.3     1  UNL1        0.0197
     32 N          62.6589   81.3988   13.1069 N.3     1  UNL1       -0.2696
     33 C          61.6332   81.4832   14.1980 C.3     1  UNL1        0.0897
     34 C          62.6739   80.2186   12.1811 C.3     1  UNL1        0.0897
@<TRIPOS>BOND
     1    22    23    1
     2    23    20    1
     3    20    21    2
     4    20    19    1
     5    19    13    1
     6    13    14   ar
     7    14    15   ar
     8    15    16   ar
     9    16    12    1
    10    12    11    1
    11    11     1    1
    12     1     2   ar
    13     2     3   ar
    14     3     4   ar
    15     4     5   ar
    16     5     6   ar
    17     6    24    1
    18    24    30    1
    19    30    31    1
    20    30    32    1
    21    32    33    1
    22    32    34    1
    23    24    25    1
    24    25    26   ar
    25    26    27   ar
    26    27    28   ar
    27    28    29   ar
    28     6     7   ar
    29     7     8   ar
    30     8     9   ar
    31     9    10   ar
    32    16    17   ar
    33    17    18   ar
    34    18    13   ar
    35    10     1   ar
    36     9     4   ar
    37    29    25   ar
@<TRIPOS>MOLECULE
*****
 34 37 0 0 0
SMALL
GASTEIGER

@<TRIPOS>ATOM
      1 C          60.0199   89.1389    8.7392 C.ar    1  UNL1        0.1391
      2 C          59.8732   89.4255   10.2042 C.ar    1  UNL1        0.0369
      3 C          60.4619   88.4862   11.2147 C.ar    1  UNL1        0.0031
      4 C          61.1973   87.2605   10.7602 C.ar    1  UNL1       -0.0001
      5 C          61.7861   86.3212   11.7708 C.ar    1  UNL1       -0.0024
      6 C          62.5215   85.0954   11.3163 C.ar    1  UNL1       -0.0004
      7 C          62.6682   84.8089    9.8512 C.ar    1  UNL1       -0.0024
      8 C          62.0795   85.7481    8.8407 C.ar    1  UNL1       -0.0002
      9 C          61.3440   86.9739    9.2952 C.ar    1  UNL1        0.0030
     10 C          60.7553   87.9131    8.2847 C.ar    1  UNL1        0.0369
     11 O          59.4311   90.0782    7.7286 O.3     1  UNL1       -0.4706
     12 C          59.3956   89.6941    6.2791 C.3     1  UNL1        0.2320
     13 C          60.6045   92.6742    3.1314 C.ar    1  UNL1       -0.0111
     14 C          59.1857   92.6294    3.6164 C.ar    1  UNL1       -0.0039
     15 C          58.7828   91.6361    4.6656 C.ar    1  UNL1       -0.0010
     16 C          59.7985   90.6875    5.2298 C.ar    1  UNL1        0.0211
     17 C          61.2173   90.7323    4.7449 C.ar    1  UNL1       -0.0010
     18 C          61.6202   91.7256    3.6957 C.ar    1  UNL1       -0.0039
     19 C          61.0074   93.6676    2.0822 C.3     1  UNL1        0.1359
     20 C          60.0784   94.7854    1.7115 C.2     1  UNL1        0.3216
     21 O          59.9981   96.0108    2.5729 O.2     1  UNL1       -0.2497
     22 C          58.8071   93.3297   -0.0249 C.3     1  UNL1        0.2556
     23 O          59.2297   94.6778    0.4794 O.3     1  UNL1       -0.4442
     24 C          63.1102   84.1562   12.3268 C.3     1  UNL1        0.1240
     25 N          63.1760   84.5540   13.7716 N.ar    1  UNL1       -0.3045
     26 C          62.1447   84.2501   14.8176 C.ar    1  UNL1        0.0983
     27 C          62.6158   84.8338   16.1165 C.ar    1  UNL1        0.1193
     28 N          63.9383   85.4986   15.8734 N.ar    1  UNL1       -0.2223
     29 C          64.2845   85.3256   14.4241 C.ar    1  UNL1        0.1788
     30 C          63.6333   82.8190   11.8926 C.3     1  UNL1        0.0827
     31 C          65.0095   82.7063   11.3067 C.3     1  UNL1        0.0197
     32 N          62.7801   81.5947   12.0442 N.3     1  UNL1       -0.2696
     33 C          62.7938   80.5348   10.9829 C.3     1  UNL1        0.0897
     34 C          61.9131   81.4302   13.2573 C.3     1  UNL1        0.0897
@<TRIPOS>BOND
     1    22    23    1
     2    23    20    1
     3    20    21    2
     4    20    19    1
     5    19    13    1
     6    13    14   ar
     7    14    15   ar
     8    15    16   ar
     9    16    12    1
    10    12    11    1
    11    11     1    1
    12     1     2   ar
    13     2     3   ar
    14     3     4   ar
    15     4     5   ar
    16     5     6   ar
    17     6    24    1
    18    24    30    1
    19    30    31    1
    20    30    32    1
    21    32    33    1
    22    32    34    1
    23    24    25    1
    24    25    26   ar
    25    26    27   ar
    26    27    28   ar
    27    28    29   ar
    28     6     7   ar
    29     7     8   ar
    30     8     9   ar
    31     9    10   ar
    32    16    17   ar
    33    17    18   ar
    34    18    13   ar
    35    10     1   ar
    36     9     4   ar
    37    29    25   ar
