@<TRIPOS>MOLECULE
*****
 31 35 0 0 0
SMALL
GASTEIGER

@<TRIPOS>ATOM
      1 C          62.0923   88.8299   11.1174 C.3     1  UNL1        0.0182
      2 C          62.7238   90.1109   10.6587 C.3     1  UNL1        0.0053
      3 C          63.4960   91.3843   10.4801 C.3     1  UNL1        0.0436
      4 C          64.3017   91.6162   11.7240 C.3     1  UNL1        0.1659
      5 C          64.0273   90.4861   12.6714 C.3     1  UNL1        0.0436
      6 C          63.0522   89.5557   12.0130 C.3     1  UNL1        0.0053
      7 C          61.1736   87.6712   10.8652 C.3     1  UNL1        0.0718
      8 N          61.3891   86.3728   11.5846 N.am    1  UNL1       -0.3025
      9 C          62.3407   85.3558   11.0277 C.2     1  UNL1        0.2458
     10 O          63.0768   85.6373    9.7514 O.2     1  UNL1       -0.2701
     11 H          60.9060   86.1881   12.4223 H       1  UNL1        0.1497
     12 C          62.5562   84.0573   11.7471 C.ar    1  UNL1        0.0534
     13 C          62.8268   82.8043   10.9682 C.ar    1  UNL1        0.0054
     14 C          63.0424   81.5058   11.6876 C.ar    1  UNL1        0.0115
     15 C          62.9873   81.4604   13.1859 C.ar    1  UNL1        0.0577
     16 CL         63.2029   80.1619   13.9053 Cl      1  UNL1       -0.0822
     17 C          62.7167   82.7135   13.9648 C.ar    1  UNL1        0.0115
     18 C          62.5012   84.0119   13.2454 C.ar    1  UNL1        0.0054
     19 C          60.0410   87.0190    8.6198 C.3     1  UNL1        0.0017
     20 C          60.0394   87.8111    9.8936 C.3     1  UNL1        0.0196
     21 O          65.2204   92.7748   11.9762 O.3     1  UNL1       -0.4791
     22 C          66.3776   93.0284   11.0563 C.ar    1  UNL1        0.1413
     23 C          67.4672   92.0063   10.9222 C.ar    1  UNL1        0.0575
     24 C          68.6245   92.2599   10.0022 C.ar    1  UNL1        0.1019
     25 N          68.6922   93.5357    9.2163 N.ar    1  UNL1       -0.2436
     26 C          67.6026   94.5580    9.3504 C.ar    1  UNL1        0.0842
     27 C          67.6704   95.8338    8.5645 C.ar    1  UNL1        0.0192
     28 C          66.5809   96.8560    8.6986 C.ar    1  UNL1        0.0015
     29 C          65.4236   96.6023    9.6186 C.ar    1  UNL1        0.0002
     30 C          65.3558   95.3265   10.4044 C.ar    1  UNL1        0.0045
     31 C          66.4454   94.3044   10.2703 C.ar    1  UNL1        0.0516
@<TRIPOS>BOND
     1    19    20    1
     2    20     7    1
     3     7     8    1
     4     8     9   am
     5     9    10    2
     6     9    12    1
     7    12    13   ar
     8    13    14   ar
     9    14    15   ar
    10    15    16    1
    11    15    17   ar
    12    17    18   ar
    13     1     7    1
    14     1     2    1
    15     2     3    1
    16     3     4    1
    17     4    21    1
    18    21    22    1
    19    22    23   ar
    20    23    24   ar
    21    24    25   ar
    22    25    26   ar
    23    26    27   ar
    24    27    28   ar
    25    28    29   ar
    26    29    30   ar
    27    30    31   ar
    28     4     5    1
    29     6     5    1
    30    18    12   ar
    31     6     1    1
    32     6     2    1
    33    31    22   ar
    34    31    26   ar
    35     8    11    1
@<TRIPOS>MOLECULE
*****
 31 35 0 0 0
SMALL
GASTEIGER

@<TRIPOS>ATOM
      1 C          64.8598   90.3200   14.0966 C.3     1  UNL1        0.0182
      2 C          64.6634   88.9002   14.5388 C.3     1  UNL1        0.0053
      3 C          64.2925   87.4583   14.7213 C.3     1  UNL1        0.0436
      4 C          63.4172   87.0557   13.5716 C.3     1  UNL1        0.1659
      5 C          63.2470   88.2488   12.6785 C.3     1  UNL1        0.0436
      6 C          64.0172   89.3888   13.2763 C.3     1  UNL1        0.0053
      7 C          65.4597   91.6775   14.3149 C.3     1  UNL1        0.0718
      8 N          65.5261   92.6590   13.1826 N.am    1  UNL1       -0.3025
      9 C          66.7563   92.7356   12.3278 C.2     1  UNL1        0.2458
     10 O          67.9200   91.8307   12.6052 O.2     1  UNL1       -0.2701
     11 H          64.7624   93.2529   13.0005 H       1  UNL1        0.1497
     12 C          66.8228   93.7172   11.1954 C.ar    1  UNL1        0.0534
     13 C          66.2377   95.0889   11.3565 C.ar    1  UNL1        0.0054
     14 C          66.3042   96.0704   10.2242 C.ar    1  UNL1        0.0115
     15 C          66.9558   95.6802    8.9307 C.ar    1  UNL1        0.0577
     16 CL         67.0223   96.6617    7.7983 Cl      1  UNL1       -0.0822
     17 C          67.5409   94.3084    8.7696 C.ar    1  UNL1        0.0115
     18 C          67.4744   93.3269    9.9019 C.ar    1  UNL1        0.0054
     19 C          67.1490   93.0027   15.7778 C.3     1  UNL1        0.0017
     20 C          65.9931   92.0533   15.6656 C.3     1  UNL1        0.0196
     21 O          62.8173   85.6984   13.3532 O.3     1  UNL1       -0.4791
     22 C          63.3381   84.8155   12.2581 C.ar    1  UNL1        0.1413
     23 C          64.2618   83.6800   12.5856 C.ar    1  UNL1        0.0575
     24 C          64.7826   82.7971   11.4904 C.ar    1  UNL1        0.1019
     25 N          64.3797   83.0498   10.0678 N.ar    1  UNL1       -0.2436
     26 C          63.4560   84.1854    9.7403 C.ar    1  UNL1        0.0842
     27 C          63.0531   84.4381    8.3177 C.ar    1  UNL1        0.0192
     28 C          62.1294   85.5736    7.9903 C.ar    1  UNL1        0.0015
     29 C          61.6086   86.4565    9.0854 C.ar    1  UNL1        0.0002
     30 C          62.0115   86.2038   10.5080 C.ar    1  UNL1        0.0045
     31 C          62.9352   85.0682   10.8355 C.ar    1  UNL1        0.0516
@<TRIPOS>BOND
     1    19    20    1
     2    20     7    1
     3     7     8    1
     4     8     9   am
     5     9    10    2
     6     9    12    1
     7    12    13   ar
     8    13    14   ar
     9    14    15   ar
    10    15    16    1
    11    15    17   ar
    12    17    18   ar
    13     1     7    1
    14     1     2    1
    15     2     3    1
    16     3     4    1
    17     4    21    1
    18    21    22    1
    19    22    23   ar
    20    23    24   ar
    21    24    25   ar
    22    25    26   ar
    23    26    27   ar
    24    27    28   ar
    25    28    29   ar
    26    29    30   ar
    27    30    31   ar
    28     4     5    1
    29     6     5    1
    30    18    12   ar
    31     6     1    1
    32     6     2    1
    33    31    22   ar
    34    31    26   ar
    35     8    11    1
@<TRIPOS>MOLECULE
*****
 31 35 0 0 0
SMALL
GASTEIGER

@<TRIPOS>ATOM
      1 C          61.9188   88.4332   10.8721 C.3     1  UNL1        0.0182
      2 C          62.7835   89.2163   11.8149 C.3     1  UNL1        0.0053
      3 C          63.6683   90.2019   12.5191 C.3     1  UNL1        0.0436
      4 C          63.9448   91.3339   11.5746 C.3     1  UNL1        0.1659
      5 C          63.2310   91.0480   10.2867 C.3     1  UNL1        0.0436
      6 C          62.5133   89.7392   10.4352 C.3     1  UNL1        0.0053
      7 C          61.0763   87.2269   10.5799 C.3     1  UNL1        0.0718
      8 N          61.2807   85.9624   11.3605 N.am    1  UNL1       -0.3025
      9 C          62.3193   84.9718   10.9248 C.2     1  UNL1        0.2458
     10 O          63.1535   85.2455    9.7086 O.2     1  UNL1       -0.2701
     11 H          60.7332   85.7827   12.1587 H       1  UNL1        0.1497
     12 C          62.5237   83.7072   11.7053 C.ar    1  UNL1        0.0534
     13 C          62.7849   82.4165   10.9872 C.ar    1  UNL1        0.0054
     14 C          62.9893   81.1519   11.7677 C.ar    1  UNL1        0.0115
     15 C          62.9325   81.1782   13.2664 C.ar    1  UNL1        0.0577
     16 CL         63.1368   79.9137   14.0470 Cl      1  UNL1       -0.0822
     17 C          62.6713   82.4690   13.9846 C.ar    1  UNL1        0.0115
     18 C          62.4669   83.7334   13.2040 C.ar    1  UNL1        0.0054
     19 C          60.1134   86.3640    8.3265 C.3     1  UNL1        0.0017
     20 C          60.0295   87.2853    9.5072 C.3     1  UNL1        0.0196
     21 O          64.7873   92.5401   11.8667 O.3     1  UNL1       -0.4791
     22 C          66.2514   92.3812   12.1517 C.ar    1  UNL1        0.1413
     23 C          67.2191   92.1909   11.0215 C.ar    1  UNL1        0.0575
     24 C          68.6832   92.0320   11.3065 C.ar    1  UNL1        0.1019
     25 N          69.1796   92.0634   12.7216 N.ar    1  UNL1       -0.2436
     26 C          68.2118   92.2538   13.8518 C.ar    1  UNL1        0.0842
     27 C          68.7082   92.2853   15.2669 C.ar    1  UNL1        0.0192
     28 C          67.7405   92.4756   16.3971 C.ar    1  UNL1        0.0015
     29 C          66.2764   92.6345   16.1121 C.ar    1  UNL1        0.0002
     30 C          65.7800   92.6030   14.6970 C.ar    1  UNL1        0.0045
     31 C          66.7477   92.4127   13.5669 C.ar    1  UNL1        0.0516
@<TRIPOS>BOND
     1    19    20    1
     2    20     7    1
     3     7     8    1
     4     8     9   am
     5     9    10    2
     6     9    12    1
     7    12    13   ar
     8    13    14   ar
     9    14    15   ar
    10    15    16    1
    11    15    17   ar
    12    17    18   ar
    13     1     7    1
    14     1     2    1
    15     2     3    1
    16     3     4    1
    17     4    21    1
    18    21    22    1
    19    22    23   ar
    20    23    24   ar
    21    24    25   ar
    22    25    26   ar
    23    26    27   ar
    24    27    28   ar
    25    28    29   ar
    26    29    30   ar
    27    30    31   ar
    28     4     5    1
    29     6     5    1
    30    18    12   ar
    31     6     1    1
    32     6     2    1
    33    31    22   ar
    34    31    26   ar
    35     8    11    1
@<TRIPOS>MOLECULE
*****
 31 35 0 0 0
SMALL
GASTEIGER

@<TRIPOS>ATOM
      1 C          62.6164   89.2882   11.4824 C.3     1  UNL1        0.0182
      2 C          63.2692   90.5858   11.1084 C.3     1  UNL1        0.0053
      3 C          64.0355   91.8727   11.0266 C.3     1  UNL1        0.0436
      4 C          64.7145   92.0926   12.3460 C.3     1  UNL1        0.1659
      5 C          64.3679   90.9416   13.2432 C.3     1  UNL1        0.0436
      6 C          63.4747   90.0103   12.4784 C.3     1  UNL1        0.0053
      7 C          61.7439   88.1220   11.1234 C.3     1  UNL1        0.0718
      8 N          61.9236   86.8074   11.8230 N.am    1  UNL1       -0.3025
      9 C          62.4172   85.6136   11.0609 C.2     1  UNL1        0.2458
     10 O          62.7312   85.7343    9.5991 O.2     1  UNL1       -0.2701
     11 H          61.7175   86.7282   12.7824 H       1  UNL1        0.1497
     12 C          62.5970   84.2989   11.7605 C.ar    1  UNL1        0.0534
     13 C          62.8491   83.0535   10.9635 C.ar    1  UNL1        0.0054
     14 C          63.0288   81.7388   11.6632 C.ar    1  UNL1        0.0115
     15 C          62.9564   81.6697   13.1598 C.ar    1  UNL1        0.0577
     16 CL         63.1361   80.3551   13.8595 Cl      1  UNL1       -0.0822
     17 C          62.7043   82.9152   13.9568 C.ar    1  UNL1        0.0115
     18 C          62.5245   84.2298   13.2572 C.ar    1  UNL1        0.0054
     19 C          60.1945   89.6344    9.6875 C.3     1  UNL1        0.0017
     20 C          60.6917   88.2705   10.0646 C.3     1  UNL1        0.0196
     21 O          65.5870   93.2587   12.7051 O.3     1  UNL1       -0.4791
     22 C          66.1101   94.1634   11.6290 C.ar    1  UNL1        0.1413
     23 C          65.7448   95.6181   11.6290 C.ar    1  UNL1        0.0575
     24 C          66.2679   96.5228   10.5529 C.ar    1  UNL1        0.1019
     25 N          67.1565   95.9727    9.4769 N.ar    1  UNL1       -0.2436
     26 C          67.5219   94.5179    9.4769 C.ar    1  UNL1        0.0842
     27 C          68.4105   93.9678    8.4010 C.ar    1  UNL1        0.0192
     28 C          68.7759   92.5130    8.4010 C.ar    1  UNL1        0.0015
     29 C          68.2527   91.6083    9.4770 C.ar    1  UNL1        0.0002
     30 C          67.3642   92.1584   10.5530 C.ar    1  UNL1        0.0045
     31 C          66.9988   93.6132   10.5530 C.ar    1  UNL1        0.0516
@<TRIPOS>BOND
     1    19    20    1
     2    20     7    1
     3     7     8    1
     4     8     9   am
     5     9    10    2
     6     9    12    1
     7    12    13   ar
     8    13    14   ar
     9    14    15   ar
    10    15    16    1
    11    15    17   ar
    12    17    18   ar
    13     1     7    1
    14     1     2    1
    15     2     3    1
    16     3     4    1
    17     4    21    1
    18    21    22    1
    19    22    23   ar
    20    23    24   ar
    21    24    25   ar
    22    25    26   ar
    23    26    27   ar
    24    27    28   ar
    25    28    29   ar
    26    29    30   ar
    27    30    31   ar
    28     4     5    1
    29     6     5    1
    30    18    12   ar
    31     6     1    1
    32     6     2    1
    33    31    22   ar
    34    31    26   ar
    35     8    11    1
@<TRIPOS>MOLECULE
*****
 31 35 0 0 0
SMALL
GASTEIGER

@<TRIPOS>ATOM
      1 C          64.8055   89.7831   13.8464 C.3     1  UNL1        0.0182
      2 C          64.5197   88.3899   14.3232 C.3     1  UNL1        0.0053
      3 C          64.0427   86.9862   14.5516 C.3     1  UNL1        0.0436
      4 C          63.0680   86.6451   13.4636 C.3     1  UNL1        0.1659
      5 C          62.9426   87.8379   12.5628 C.3     1  UNL1        0.0436
      6 C          63.8398   88.9162   13.0940 C.3     1  UNL1        0.0053
      7 C          65.5280   91.0880   14.0056 C.3     1  UNL1        0.0718
      8 N          65.5111   92.0951   12.8941 N.am    1  UNL1       -0.3025
      9 C          66.7958   92.5167   12.2445 C.2     1  UNL1        0.2458
     10 O          68.0972   91.9314   12.7066 O.2     1  UNL1       -0.2701
     11 H          64.6569   92.4793   12.5908 H       1  UNL1        0.1497
     12 C          66.7789   93.5238   11.1330 C.ar    1  UNL1        0.0534
     13 C          66.1572   94.8714   11.3511 C.ar    1  UNL1        0.0054
     14 C          66.1404   95.8784   10.2395 C.ar    1  UNL1        0.0115
     15 C          66.7453   95.5379    8.9098 C.ar    1  UNL1        0.0577
     16 CL         66.7285   96.5449    7.7982 Cl      1  UNL1       -0.0822
     17 C          67.3670   94.1903    8.6917 C.ar    1  UNL1        0.0115
     18 C          67.3838   93.1833    9.8032 C.ar    1  UNL1        0.0054
     19 C          66.2814   92.7812   15.8265 C.3     1  UNL1        0.0017
     20 C          66.2674   91.3858   15.2763 C.3     1  UNL1        0.0196
     21 O          62.3455   85.3403   13.3045 O.3     1  UNL1       -0.4791
     22 C          62.8176   84.3403   12.2910 C.ar    1  UNL1        0.1413
     23 C          63.4315   84.8084   11.0050 C.ar    1  UNL1        0.0575
     24 C          63.9037   83.8084    9.9916 C.ar    1  UNL1        0.1019
     25 N          63.7620   82.3403   10.2641 N.ar    1  UNL1       -0.2436
     26 C          63.1480   81.8720   11.5502 C.ar    1  UNL1        0.0842
     27 C          63.0063   80.4039   11.8228 C.ar    1  UNL1        0.0192
     28 C          62.3924   79.9357   13.1088 C.ar    1  UNL1        0.0015
     29 C          61.9203   80.9357   14.1223 C.ar    1  UNL1        0.0002
     30 C          62.0620   82.4038   13.8497 C.ar    1  UNL1        0.0045
     31 C          62.6759   82.8720   12.5637 C.ar    1  UNL1        0.0516
@<TRIPOS>BOND
     1    19    20    1
     2    20     7    1
     3     7     8    1
     4     8     9   am
     5     9    10    2
     6     9    12    1
     7    12    13   ar
     8    13    14   ar
     9    14    15   ar
    10    15    16    1
    11    15    17   ar
    12    17    18   ar
    13     1     7    1
    14     1     2    1
    15     2     3    1
    16     3     4    1
    17     4    21    1
    18    21    22    1
    19    22    23   ar
    20    23    24   ar
    21    24    25   ar
    22    25    26   ar
    23    26    27   ar
    24    27    28   ar
    25    28    29   ar
    26    29    30   ar
    27    30    31   ar
    28     4     5    1
    29     6     5    1
    30    18    12   ar
    31     6     1    1
    32     6     2    1
    33    31    22   ar
    34    31    26   ar
    35     8    11    1
@<TRIPOS>MOLECULE
*****
 31 35 0 0 0
SMALL
GASTEIGER

@<TRIPOS>ATOM
      1 C          61.8801   87.4229    9.5750 C.3     1  UNL1        0.0182
      2 C          62.6478   86.2272    9.0944 C.3     1  UNL1        0.0053
      3 C          63.3060   84.8973    8.8752 C.3     1  UNL1        0.0436
      4 C          62.9432   84.0053   10.0254 C.3     1  UNL1        0.1659
      5 C          62.0607   84.7840   10.9554 C.3     1  UNL1        0.0436
      6 C          61.8781   86.1572   10.3800 C.3     1  UNL1        0.0053
      7 C          61.4380   88.8440    9.3878 C.3     1  UNL1        0.0718
      8 N          62.3400   89.9703    9.7977 N.am    1  UNL1       -0.3025
      9 C          62.9840   89.9603   11.1523 C.2     1  UNL1        0.2458
     10 O          62.7261   88.8240   12.0970 O.2     1  UNL1       -0.2701
     11 H          62.5092   90.7160    9.1776 H       1  UNL1        0.1497
     12 C          63.8860   91.0865   11.5623 C.ar    1  UNL1        0.0534
     13 C          64.3325   91.2085   12.9890 C.ar    1  UNL1        0.0054
     14 C          65.2345   92.3347   13.3990 C.ar    1  UNL1        0.0115
     15 C          65.6900   93.3390   12.3821 C.ar    1  UNL1        0.0577
     16 CL         66.5919   94.4652   12.7920 Cl      1  UNL1       -0.0822
     17 C          65.2434   93.2170   10.9553 C.ar    1  UNL1        0.0115
     18 C          64.3415   92.0908   10.5454 C.ar    1  UNL1        0.0054
     19 C          59.4249   88.1241    7.9116 C.3     1  UNL1        0.0017
     20 C          60.0940   89.1389    8.7906 C.3     1  UNL1        0.0196
     21 O          63.3852   82.5843   10.2126 O.3     1  UNL1       -0.4791
     22 C          63.2377   81.9231   11.5510 C.ar    1  UNL1        0.1413
     23 C          62.6531   80.5450   11.6463 C.ar    1  UNL1        0.0575
     24 C          62.5055   79.8838   12.9846 C.ar    1  UNL1        0.1019
     25 N          62.9426   80.6007   14.2276 N.ar    1  UNL1       -0.2436
     26 C          63.5272   81.9788   14.1323 C.ar    1  UNL1        0.0842
     27 C          63.9643   82.6957   15.3752 C.ar    1  UNL1        0.0192
     28 C          64.5489   84.0738   15.2799 C.ar    1  UNL1        0.0015
     29 C          64.6964   84.7350   13.9416 C.ar    1  UNL1        0.0002
     30 C          64.2594   84.0181   12.6986 C.ar    1  UNL1        0.0045
     31 C          63.6748   82.6400   12.7940 C.ar    1  UNL1        0.0516
@<TRIPOS>BOND
     1    19    20    1
     2    20     7    1
     3     7     8    1
     4     8     9   am
     5     9    10    2
     6     9    12    1
     7    12    13   ar
     8    13    14   ar
     9    14    15   ar
    10    15    16    1
    11    15    17   ar
    12    17    18   ar
    13     1     7    1
    14     1     2    1
    15     2     3    1
    16     3     4    1
    17     4    21    1
    18    21    22    1
    19    22    23   ar
    20    23    24   ar
    21    24    25   ar
    22    25    26   ar
    23    26    27   ar
    24    27    28   ar
    25    28    29   ar
    26    29    30   ar
    27    30    31   ar
    28     4     5    1
    29     6     5    1
    30    18    12   ar
    31     6     1    1
    32     6     2    1
    33    31    22   ar
    34    31    26   ar
    35     8    11    1
@<TRIPOS>MOLECULE
*****
 31 35 0 0 0
SMALL
GASTEIGER

@<TRIPOS>ATOM
      1 C          59.9265   92.4085    3.4589 C.3     1  UNL1        0.0182
      2 C          58.8602   91.8660    4.3637 C.3     1  UNL1        0.0053
      3 C          58.0280   91.1520    5.3873 C.3     1  UNL1        0.0436
      4 C          58.9251   90.2182    6.1445 C.3     1  UNL1        0.1659
      5 C          60.3116   90.3550    5.5889 C.3     1  UNL1        0.0436
      6 C          60.2716   91.3734    4.4884 C.3     1  UNL1        0.0053
      7 C          60.3430   93.3192    2.3421 C.3     1  UNL1        0.0718
      8 N          59.3066   93.9279    1.4446 N.am    1  UNL1       -0.3025
      9 C          58.9279   93.2438    0.1646 C.2     1  UNL1        0.2458
     10 O          59.5855   91.9510   -0.2179 O.2     1  UNL1       -0.2701
     11 H          58.8750   94.7764    1.6957 H       1  UNL1        0.1497
     12 C          57.8915   93.8524   -0.7329 C.ar    1  UNL1        0.0534
     13 C          56.8392   92.9859   -1.3588 C.ar    1  UNL1        0.0054
     14 C          55.8028   93.5946   -2.2564 C.ar    1  UNL1        0.0115
     15 C          55.8188   95.0697   -2.5280 C.ar    1  UNL1        0.0577
     16 CL         54.7825   95.6784   -3.4255 Cl      1  UNL1       -0.0822
     17 C          56.8712   95.9362   -1.9020 C.ar    1  UNL1        0.0115
     18 C          57.9075   95.3275   -1.0045 C.ar    1  UNL1        0.0054
     19 C          62.7933   92.5029    2.0609 C.3     1  UNL1        0.0017
     20 C          61.7958   93.6213    2.1229 C.3     1  UNL1        0.0196
     21 O          58.5087   89.3074    7.2612 O.3     1  UNL1       -0.4791
     22 C          59.4576   88.2637    7.7713 C.ar    1  UNL1        0.1413
     23 C          59.4472   86.8863    7.1775 C.ar    1  UNL1        0.0575
     24 C          60.3961   85.8425    7.6875 C.ar    1  UNL1        0.1019
     25 N          61.3554   86.1762    8.7913 N.ar    1  UNL1       -0.2436
     26 C          61.3659   87.5536    9.3851 C.ar    1  UNL1        0.0842
     27 C          62.3253   87.8873   10.4888 C.ar    1  UNL1        0.0192
     28 C          62.3357   89.2647   11.0825 C.ar    1  UNL1        0.0015
     29 C          61.3868   90.3085   10.5725 C.ar    1  UNL1        0.0002
     30 C          60.4274   89.9748    9.4688 C.ar    1  UNL1        0.0045
     31 C          60.4170   88.5974    8.8750 C.ar    1  UNL1        0.0516
@<TRIPOS>BOND
     1    19    20    1
     2    20     7    1
     3     7     8    1
     4     8     9   am
     5     9    10    2
     6     9    12    1
     7    12    13   ar
     8    13    14   ar
     9    14    15   ar
    10    15    16    1
    11    15    17   ar
    12    17    18   ar
    13     1     7    1
    14     1     2    1
    15     2     3    1
    16     3     4    1
    17     4    21    1
    18    21    22    1
    19    22    23   ar
    20    23    24   ar
    21    24    25   ar
    22    25    26   ar
    23    26    27   ar
    24    27    28   ar
    25    28    29   ar
    26    29    30   ar
    27    30    31   ar
    28     4     5    1
    29     6     5    1
    30    18    12   ar
    31     6     1    1
    32     6     2    1
    33    31    22   ar
    34    31    26   ar
    35     8    11    1
@<TRIPOS>MOLECULE
*****
 31 35 0 0 0
SMALL
GASTEIGER

@<TRIPOS>ATOM
      1 C          59.5344   89.7403    6.8511 C.3     1  UNL1        0.0182
      2 C          60.1621   90.4570    5.6926 C.3     1  UNL1        0.0053
      3 C          60.4979   91.2758    4.4815 C.3     1  UNL1        0.0436
      4 C          59.2332   91.9137    3.9878 C.3     1  UNL1        0.1659
      5 C          58.1157   91.4891    4.8939 C.3     1  UNL1        0.0436
      6 C          58.6897   90.5889    5.9474 C.3     1  UNL1        0.0053
      7 C          59.6596   88.8365    8.0418 C.3     1  UNL1        0.0718
      8 N          60.4399   89.2821    9.2428 N.am    1  UNL1       -0.3025
      9 C          61.6474   88.5082    9.6820 C.2     1  UNL1        0.2458
     10 O          62.0747   87.2888    8.9201 O.2     1  UNL1       -0.2701
     11 H          60.1594   90.0824    9.7429 H       1  UNL1        0.1497
     12 C          62.4278   88.9538   10.8831 C.ar    1  UNL1        0.0534
     13 C          62.7882   90.4003   11.0490 C.ar    1  UNL1        0.0054
     14 C          63.5685   90.8459   12.2501 C.ar    1  UNL1        0.0115
     15 C          63.9885   89.8448   13.2853 C.ar    1  UNL1        0.0577
     16 CL         64.7688   90.2903   14.4863 Cl      1  UNL1       -0.0822
     17 C          63.6280   88.3982   13.1193 C.ar    1  UNL1        0.0115
     18 C          62.8477   87.9527   11.9182 C.ar    1  UNL1        0.0054
     19 C          59.7294   86.3059    7.4578 C.3     1  UNL1        0.0017
     20 C          59.0044   87.4872    8.0313 C.3     1  UNL1        0.0196
     21 O          59.1080   92.8174    2.7972 O.3     1  UNL1       -0.4791
     22 C          60.2686   92.9926    1.8632 C.ar    1  UNL1        0.1413
     23 C          61.6662   93.0444    2.4052 C.ar    1  UNL1        0.0575
     24 C          62.8268   93.2196    1.4712 C.ar    1  UNL1        0.1019
     25 N          62.5897   93.3430   -0.0048 N.ar    1  UNL1       -0.2436
     26 C          61.1920   93.2912   -0.5468 C.ar    1  UNL1        0.0842
     27 C          60.9549   93.4146   -2.0228 C.ar    1  UNL1        0.0192
     28 C          59.5572   93.3628   -2.5647 C.ar    1  UNL1        0.0015
     29 C          58.3966   93.1876   -1.6307 C.ar    1  UNL1        0.0002
     30 C          58.6337   93.0642   -0.1548 C.ar    1  UNL1        0.0045
     31 C          60.0314   93.1160    0.3872 C.ar    1  UNL1        0.0516
@<TRIPOS>BOND
     1    19    20    1
     2    20     7    1
     3     7     8    1
     4     8     9   am
     5     9    10    2
     6     9    12    1
     7    12    13   ar
     8    13    14   ar
     9    14    15   ar
    10    15    16    1
    11    15    17   ar
    12    17    18   ar
    13     1     7    1
    14     1     2    1
    15     2     3    1
    16     3     4    1
    17     4    21    1
    18    21    22    1
    19    22    23   ar
    20    23    24   ar
    21    24    25   ar
    22    25    26   ar
    23    26    27   ar
    24    27    28   ar
    25    28    29   ar
    26    29    30   ar
    27    30    31   ar
    28     4     5    1
    29     6     5    1
    30    18    12   ar
    31     6     1    1
    32     6     2    1
    33    31    22   ar
    34    31    26   ar
    35     8    11    1
@<TRIPOS>MOLECULE
*****
 31 35 0 0 0
SMALL
GASTEIGER

@<TRIPOS>ATOM
      1 C          62.0408   87.7819   10.7911 C.3     1  UNL1        0.0182
      2 C          62.7916   88.4389   11.9112 C.3     1  UNL1        0.0053
      3 C          63.4897   89.3588   12.8685 C.3     1  UNL1        0.0436
      4 C          63.3946   90.7534   12.3241 C.3     1  UNL1        0.1659
      5 C          62.6377   90.6953   11.0304 C.3     1  UNL1        0.0436
      6 C          62.2650   89.2650   10.7752 C.3     1  UNL1        0.0053
      7 C          61.4778   86.5462   10.1536 C.3     1  UNL1        0.0718
      8 N          61.4705   85.2498   10.9081 N.am    1  UNL1       -0.3025
      9 C          62.6673   84.3469   10.8590 C.2     1  UNL1        0.2458
     10 O          63.8713   84.7404   10.0556 O.2     1  UNL1       -0.2701
     11 H          60.6803   84.9916   11.4354 H       1  UNL1        0.1497
     12 C          62.6601   83.0504   11.6135 C.ar    1  UNL1        0.0534
     13 C          62.3265   83.0354   13.0758 C.ar    1  UNL1        0.0054
     14 C          62.3193   81.7389   13.8303 C.ar    1  UNL1        0.0115
     15 C          62.6456   80.4574   13.1223 C.ar    1  UNL1        0.0577
     16 CL         62.6384   79.1610   13.8766 Cl      1  UNL1       -0.0822
     17 C          62.9793   80.4724   11.6599 C.ar    1  UNL1        0.0115
     18 C          62.9865   81.7689   10.9055 C.ar    1  UNL1        0.0054
     19 C          61.3582   85.6039    7.7355 C.3     1  UNL1        0.0017
     20 C          60.9221   86.6071    8.7617 C.3     1  UNL1        0.0196
     21 O          63.9576   91.9890   12.9616 O.3     1  UNL1       -0.4791
     22 C          65.4140   92.0539   13.3143 C.ar    1  UNL1        0.1413
     23 C          65.8414   91.9912   14.7507 C.ar    1  UNL1        0.0575
     24 C          67.2979   92.0561   15.1035 C.ar    1  UNL1        0.1019
     25 N          68.3270   92.1838   14.0198 N.ar    1  UNL1       -0.2436
     26 C          67.8997   92.2465   12.5832 C.ar    1  UNL1        0.0842
     27 C          68.9289   92.3742   11.4995 C.ar    1  UNL1        0.0192
     28 C          68.5016   92.4369   10.0631 C.ar    1  UNL1        0.0015
     29 C          67.0451   92.3720    9.7103 C.ar    1  UNL1        0.0002
     30 C          66.0159   92.2443   10.7940 C.ar    1  UNL1        0.0045
     31 C          66.4432   92.1816   12.2305 C.ar    1  UNL1        0.0516
@<TRIPOS>BOND
     1    19    20    1
     2    20     7    1
     3     7     8    1
     4     8     9   am
     5     9    10    2
     6     9    12    1
     7    12    13   ar
     8    13    14   ar
     9    14    15   ar
    10    15    16    1
    11    15    17   ar
    12    17    18   ar
    13     1     7    1
    14     1     2    1
    15     2     3    1
    16     3     4    1
    17     4    21    1
    18    21    22    1
    19    22    23   ar
    20    23    24   ar
    21    24    25   ar
    22    25    26   ar
    23    26    27   ar
    24    27    28   ar
    25    28    29   ar
    26    29    30   ar
    27    30    31   ar
    28     4     5    1
    29     6     5    1
    30    18    12   ar
    31     6     1    1
    32     6     2    1
    33    31    22   ar
    34    31    26   ar
    35     8    11    1
