@<TRIPOS>MOLECULE
*****
 42 47 0 0 0
SMALL
GASTEIGER

@<TRIPOS>ATOM
      1 N          61.6577   94.1297    0.3873 N.am    1  UNL1       -0.2222
      2 C          61.9102   93.3592    1.6495 C.2     1  UNL1        0.3219
      3 O          63.2444   93.1488    2.3020 O.2     1  UNL1       -0.2512
      4 N          60.5943   92.8362    2.1444 N.am    1  UNL1       -0.1907
      5 C          59.5286   93.2834    1.1882 C.2     1  UNL1        0.2529
      6 O          58.0630   92.9838    1.2985 O.2     1  UNL1       -0.2724
      7 C          60.1858   94.0828    0.1023 C.3     1  UNL1        0.1391
      8 C          60.9788   94.8557   -0.9094 C.3     1  UNL1        0.0449
      9 C          60.2858   95.4958   -2.0755 C.3     1  UNL1        0.0746
     10 N          58.7997   95.3629   -2.2300 N.3     1  UNL1       -0.2676
     11 C          58.0066   94.5900   -1.2183 C.3     1  UNL1        0.0746
     12 C          58.6997   93.9499   -0.0522 C.3     1  UNL1        0.0449
     13 C          64.2372   94.8798   -2.5338 C.ar    1  UNL1        0.2293
     14 C          63.1999   94.1846   -1.7027 C.ar    1  UNL1        0.0924
     15 C          62.6950   94.8248   -0.4437 C.ar    1  UNL1        0.1453
     16 N          63.2274   96.1603   -0.0158 N.ar    1  UNL1       -0.2084
     17 C          64.2647   96.8555   -0.8468 C.ar    1  UNL1        0.2027
     18 N          64.7696   96.2152   -2.1059 N.ar    1  UNL1       -0.1892
     19 C          64.2691   92.8697   -4.1794 C.3     1  UNL1        0.2542
     20 O          64.7422   94.2396   -3.7928 O.3     1  UNL1       -0.4560
     21 C          60.3815   92.0110    3.3787 C.ar    1  UNL1        0.0622
     22 C          59.0387   91.9933    4.0467 C.ar    1  UNL1        0.0154
     23 C          58.8259   91.1680    5.2811 C.ar    1  UNL1        0.0014
     24 C          59.9560   90.3605    5.8475 C.ar    1  UNL1        0.0032
     25 C          61.2990   90.3782    5.1794 C.ar    1  UNL1        0.0014
     26 C          61.5117   91.2035    3.9450 C.ar    1  UNL1        0.0154
     27 C          59.7432   89.5352    7.0819 C.ar    1  UNL1        0.0407
     28 C          58.9799   88.2462    7.1599 C.ar    1  UNL1        0.1796
     29 O          59.0213   87.7684    8.5811 O.2     1  UNL1       -0.4493
     30 C          59.8102   88.7620    9.3814 C.ar    1  UNL1        0.1594
     31 C          60.2563   89.8540    8.4548 C.ar    1  UNL1        0.0418
     32 C          60.1017   88.6784   10.8504 C.2     1  UNL1        0.1076
     33 O          60.6769   87.4204   11.4305 O.co2   1  UNL1       -0.5415
     34 O          59.8180   89.8528   11.7394 O.co2   1  UNL1       -0.5415
     35 C          58.1067   96.0030   -3.3962 C.3     1  UNL1        0.1183
     36 C          57.5835   95.1535   -4.5163 C.ar    1  UNL1        0.0712
     37 N          58.5275   94.6020   -5.5433 N.ar    1  UNL1       -0.2471
     38 C          58.0042   93.7524   -6.6634 C.ar    1  UNL1        0.0985
     39 C          56.5371   93.4545   -6.7565 C.ar    1  UNL1        0.0203
     40 C          55.5931   94.0060   -5.7295 C.ar    1  UNL1       -0.0015
     41 C          56.1163   94.8555   -4.6094 C.ar    1  UNL1       -0.0069
     42 C          55.1723   95.4071   -3.5824 C.3     1  UNL1        0.0323
@<TRIPOS>UNITY_ATOM_ATTR
33 1
charge -1
@<TRIPOS>BOND
     1    19    20    1
     2    20    13    1
     3    13    14   ar
     4    14    15   ar
     5    15     1    1
     6     1     2   am
     7     2     3    2
     8     2     4   am
     9     4    21    1
    10    21    22   ar
    11    22    23   ar
    12    23    24   ar
    13    24    27    1
    14    27    28   ar
    15    28    29   ar
    16    29    30   ar
    17    30    32    1
    18    32    33   ar
    19    32    34   ar
    20    30    31   ar
    21    24    25   ar
    22    25    26   ar
    23     4     5   am
    24     5     6    2
    25     5     7    1
    26     7     8    1
    27     8     9    1
    28     9    10    1
    29    10    35    1
    30    35    36    1
    31    36    37   ar
    32    37    38   ar
    33    38    39   ar
    34    39    40   ar
    35    40    41   ar
    36    41    42    1
    37    10    11    1
    38    11    12    1
    39    15    16   ar
    40    16    17   ar
    41    17    18   ar
    42    18    13   ar
    43     7     1    1
    44    41    36   ar
    45    26    21   ar
    46    12     7    1
    47    31    27   ar
@<TRIPOS>MOLECULE
*****
 42 47 0 0 0
SMALL
GASTEIGER

@<TRIPOS>ATOM
      1 N          61.6647   93.6031    0.0661 N.am    1  UNL1       -0.2222
      2 C          61.9283   92.8086    1.3109 C.2     1  UNL1        0.3219
      3 O          63.2668   92.3162    1.7757 O.2     1  UNL1       -0.2512
      4 N          60.6183   92.5929    2.0093 N.am    1  UNL1       -0.1907
      5 C          59.5452   93.2541    1.1961 C.2     1  UNL1        0.2529
      6 O          58.0823   93.2855    1.5259 O.2     1  UNL1       -0.2724
      7 C          60.1918   93.8784   -0.0048 C.3     1  UNL1        0.1391
      8 C          60.9749   94.4478   -1.1505 C.3     1  UNL1        0.0449
      9 C          60.2721   95.2131   -2.2323 C.3     1  UNL1        0.0746
     10 N          58.7863   95.4090   -2.1685 N.3     1  UNL1       -0.2676
     11 C          58.0033   94.8396   -1.0228 C.3     1  UNL1        0.0746
     12 C          58.7061   94.0743    0.0590 C.3     1  UNL1        0.0449
     13 C          64.5965   95.6681   -1.6337 C.ar    1  UNL1        0.2293
     14 C          63.5679   95.2265   -0.6353 C.ar    1  UNL1        0.0924
     15 C          62.6933   94.0447   -0.9323 C.ar    1  UNL1        0.1453
     16 N          62.8473   93.3044   -2.2278 N.ar    1  UNL1       -0.2084
     17 C          63.8759   93.7459   -3.2262 C.ar    1  UNL1        0.2027
     18 N          64.7505   94.9278   -2.9292 N.ar    1  UNL1       -0.1892
     19 C          66.9069   96.8483   -1.7710 C.3     1  UNL1        0.2542
     20 O          65.4711   96.8500   -1.3368 O.3     1  UNL1       -0.4560
     21 C          60.4169   91.8471    3.2949 C.ar    1  UNL1        0.0622
     22 C          61.5779   91.1654    3.9564 C.ar    1  UNL1        0.0154
     23 C          61.3765   90.4196    5.2421 C.ar    1  UNL1        0.0014
     24 C          60.0141   90.3553    5.8664 C.ar    1  UNL1        0.0032
     25 C          58.8530   91.0370    5.2050 C.ar    1  UNL1        0.0014
     26 C          59.0546   91.7828    3.9192 C.ar    1  UNL1        0.0154
     27 C          59.8127   89.6094    7.1522 C.ar    1  UNL1        0.0407
     28 C          58.8425   88.4879    7.3781 C.ar    1  UNL1        0.1796
     29 O          58.9763   88.0394    8.8033 O.2     1  UNL1       -0.4493
     30 C          60.0291   88.8838    9.4580 C.ar    1  UNL1        0.1594
     31 C          60.5460   89.8541    8.4376 C.ar    1  UNL1        0.0418
     32 C          60.4850   88.7766   10.8830 C.2     1  UNL1        0.1076
     33 O          59.5002   88.9522   12.0008 O.co2   1  UNL1       -0.5415
     34 O          61.9256   88.4939   11.1904 O.co2   1  UNL1       -0.5415
     35 C          58.0836   96.1743   -3.2505 C.3     1  UNL1        0.1183
     36 C          57.3879   95.4398   -4.3579 C.ar    1  UNL1        0.0712
     37 N          58.1906   94.7165   -5.3983 N.ar    1  UNL1       -0.2471
     38 C          57.4949   93.9820   -6.5059 C.ar    1  UNL1        0.0985
     39 C          55.9965   93.9709   -6.5730 C.ar    1  UNL1        0.0203
     40 C          55.1937   94.6942   -5.5326 C.ar    1  UNL1       -0.0015
     41 C          55.8894   95.4286   -4.4251 C.ar    1  UNL1       -0.0069
     42 C          55.0866   96.1520   -3.3847 C.3     1  UNL1        0.0323
@<TRIPOS>UNITY_ATOM_ATTR
33 1
charge -1
@<TRIPOS>BOND
     1    19    20    1
     2    20    13    1
     3    13    14   ar
     4    14    15   ar
     5    15     1    1
     6     1     2   am
     7     2     3    2
     8     2     4   am
     9     4    21    1
    10    21    22   ar
    11    22    23   ar
    12    23    24   ar
    13    24    27    1
    14    27    28   ar
    15    28    29   ar
    16    29    30   ar
    17    30    32    1
    18    32    33   ar
    19    32    34   ar
    20    30    31   ar
    21    24    25   ar
    22    25    26   ar
    23     4     5   am
    24     5     6    2
    25     5     7    1
    26     7     8    1
    27     8     9    1
    28     9    10    1
    29    10    35    1
    30    35    36    1
    31    36    37   ar
    32    37    38   ar
    33    38    39   ar
    34    39    40   ar
    35    40    41   ar
    36    41    42    1
    37    10    11    1
    38    11    12    1
    39    15    16   ar
    40    16    17   ar
    41    17    18   ar
    42    18    13   ar
    43     7     1    1
    44    41    36   ar
    45    26    21   ar
    46    12     7    1
    47    31    27   ar
@<TRIPOS>MOLECULE
*****
 42 47 0 0 0
SMALL
GASTEIGER

@<TRIPOS>ATOM
      1 N          64.5467   89.6747   14.1956 N.am    1  UNL1       -0.2222
      2 C          64.2553   88.2850   14.6793 C.2     1  UNL1        0.3219
      3 O          64.5947   87.7329   16.0321 O.2     1  UNL1       -0.2512
      4 N          63.5647   87.5443   13.5726 N.am    1  UNL1       -0.1907
      5 C          63.4295   88.4762   12.4050 C.2     1  UNL1        0.2529
      6 O          62.7981   88.1491   11.0843 O.2     1  UNL1       -0.2724
      7 C          64.0364   89.7929   12.7901 C.3     1  UNL1        0.1391
      8 C          64.6754   91.0446   13.3144 C.3     1  UNL1        0.0449
      9 C          64.7575   92.2650   12.4463 C.3     1  UNL1        0.0746
     10 N          64.2006   92.2339   11.0539 N.3     1  UNL1       -0.2676
     11 C          63.5615   90.9822   10.5296 C.3     1  UNL1        0.0746
     12 C          63.4794   89.7618   11.3976 C.3     1  UNL1        0.0449
     13 C          67.3712   92.1090   15.5544 C.ar    1  UNL1        0.2293
     14 C          66.6891   91.0275   14.7702 C.ar    1  UNL1        0.0924
     15 C          65.2288   90.7562   14.9799 C.ar    1  UNL1        0.1453
     16 N          64.4506   91.5666   15.9737 N.ar    1  UNL1       -0.2084
     17 C          65.1326   92.6481   16.7580 C.ar    1  UNL1        0.2027
     18 N          66.5930   92.9193   16.5483 N.ar    1  UNL1       -0.1892
     19 C          69.4283   93.6749   15.8117 C.3     1  UNL1        0.2542
     20 O          68.8315   92.3803   15.3448 O.3     1  UNL1       -0.4560
     21 C          63.0925   86.1216   13.6244 C.ar    1  UNL1        0.0622
     22 C          62.8780   85.3558   12.3527 C.ar    1  UNL1        0.0154
     23 C          62.4057   83.9330   12.4045 C.ar    1  UNL1        0.0014
     24 C          62.1478   83.2761   13.7281 C.ar    1  UNL1        0.0032
     25 C          62.3623   84.0420   15.0000 C.ar    1  UNL1        0.0014
     26 C          62.8346   85.4647   14.9480 C.ar    1  UNL1        0.0154
     27 C          61.6755   81.8533   13.7799 C.ar    1  UNL1        0.0407
     28 C          62.4495   80.6504   13.3281 C.ar    1  UNL1        0.1796
     29 O          61.5987   79.4373   13.5616 O.2     1  UNL1       -0.4493
     30 C          60.2989   79.8905   14.1577 C.ar    1  UNL1        0.1594
     31 C          60.3465   81.3837   14.2927 C.ar    1  UNL1        0.0418
     32 C          59.1529   79.0059   14.5501 C.2     1  UNL1        0.1076
     33 O          59.0669   77.6077   14.0137 O.co2   1  UNL1       -0.5415
     34 O          58.0928   79.5193   15.4788 O.co2   1  UNL1       -0.5415
     35 C          64.2827   93.4545   10.1858 C.3     1  UNL1        0.1183
     36 C          65.6203   94.0276    9.8222 C.ar    1  UNL1        0.0712
     37 N          66.7850   93.1152    9.5747 N.ar    1  UNL1       -0.2471
     38 C          68.1227   93.6884    9.2110 C.ar    1  UNL1        0.0985
     39 C          68.2956   95.1738    9.0949 C.ar    1  UNL1        0.0203
     40 C          67.1310   96.0862    9.3424 C.ar    1  UNL1       -0.0015
     41 C          65.7934   95.5131    9.7060 C.ar    1  UNL1       -0.0069
     42 C          64.6287   96.4254    9.9535 C.3     1  UNL1        0.0323
@<TRIPOS>UNITY_ATOM_ATTR
33 1
charge -1
@<TRIPOS>BOND
     1    19    20    1
     2    20    13    1
     3    13    14   ar
     4    14    15   ar
     5    15     1    1
     6     1     2   am
     7     2     3    2
     8     2     4   am
     9     4    21    1
    10    21    22   ar
    11    22    23   ar
    12    23    24   ar
    13    24    27    1
    14    27    28   ar
    15    28    29   ar
    16    29    30   ar
    17    30    32    1
    18    32    33   ar
    19    32    34   ar
    20    30    31   ar
    21    24    25   ar
    22    25    26   ar
    23     4     5   am
    24     5     6    2
    25     5     7    1
    26     7     8    1
    27     8     9    1
    28     9    10    1
    29    10    35    1
    30    35    36    1
    31    36    37   ar
    32    37    38   ar
    33    38    39   ar
    34    39    40   ar
    35    40    41   ar
    36    41    42    1
    37    10    11    1
    38    11    12    1
    39    15    16   ar
    40    16    17   ar
    41    17    18   ar
    42    18    13   ar
    43     7     1    1
    44    41    36   ar
    45    26    21   ar
    46    12     7    1
    47    31    27   ar
@<TRIPOS>MOLECULE
*****
 42 47 0 0 0
SMALL
GASTEIGER

@<TRIPOS>ATOM
      1 N          64.2424   89.7735   14.0416 N.am    1  UNL1       -0.2222
      2 C          64.0806   88.3126   14.3411 C.2     1  UNL1        0.3219
      3 O          64.2666   87.6611   15.6794 O.2     1  UNL1       -0.2512
      4 N          63.7002   87.6176   13.0674 N.am    1  UNL1       -0.1907
      5 C          63.6269   88.6490   11.9807 C.2     1  UNL1        0.2529
      6 O          63.2794   88.3930   10.5441 O.2     1  UNL1       -0.2724
      7 C          63.9620   89.9814   12.5827 C.3     1  UNL1        0.1391
      8 C          64.3147   91.2384   13.3214 C.3     1  UNL1        0.0449
      9 C          64.3612   92.5485   12.5926 C.3     1  UNL1        0.0746
     10 N          64.0550   92.6018   11.1252 N.3     1  UNL1       -0.2676
     11 C          63.7023   91.3449   10.3865 C.3     1  UNL1        0.0746
     12 C          63.6558   90.0347   11.1153 C.3     1  UNL1        0.0449
     13 C          66.3953   92.4415   16.0407 C.ar    1  UNL1        0.2293
     14 C          66.0192   91.3757   15.0545 C.ar    1  UNL1        0.0924
     15 C          64.6186   90.8393   15.0277 C.ar    1  UNL1        0.1453
     16 N          63.5942   91.3688   15.9871 N.ar    1  UNL1       -0.2084
     17 C          63.9703   92.4346   16.9732 C.ar    1  UNL1        0.2027
     18 N          65.3710   92.9710   17.0000 N.ar    1  UNL1       -0.1892
     19 C          68.7487   92.6426   14.9587 C.3     1  UNL1        0.2542
     20 O          67.7959   92.9779   16.0676 O.3     1  UNL1       -0.4560
     21 C          63.4390   86.1492   12.9083 C.ar    1  UNL1        0.0622
     22 C          63.9741   85.1784   13.9189 C.ar    1  UNL1        0.0154
     23 C          63.7129   83.7099   13.7598 C.ar    1  UNL1        0.0014
     24 C          62.9165   83.2122   12.5902 C.ar    1  UNL1        0.0032
     25 C          62.3813   84.1830   11.5796 C.ar    1  UNL1        0.0014
     26 C          62.6426   85.6515   11.7387 C.ar    1  UNL1        0.0154
     27 C          62.6552   81.7437   12.4311 C.ar    1  UNL1        0.0407
     28 C          61.9863   80.8533   13.4360 C.ar    1  UNL1        0.1796
     29 O          61.9347   79.4671   12.8652 O.2     1  UNL1       -0.4493
     30 C          62.5717   79.5008   11.5076 C.ar    1  UNL1        0.1594
     31 C          63.0170   80.9078   11.2393 C.ar    1  UNL1        0.0418
     32 C          62.7348   78.3326   10.5809 C.2     1  UNL1        0.1076
     33 O          62.6976   76.9345   11.1229 O.co2   1  UNL1       -0.5415
     34 O          62.9350   78.5625    9.1123 O.co2   1  UNL1       -0.5415
     35 C          64.1015   93.9121   10.3964 C.3     1  UNL1        0.1183
     36 C          65.4143   94.4587    9.9192 C.ar    1  UNL1        0.0712
     37 N          66.5721   93.5337    9.6874 N.ar    1  UNL1       -0.2471
     38 C          67.8850   94.0803    9.2102 C.ar    1  UNL1        0.0985
     39 C          68.0399   95.5519    8.9647 C.ar    1  UNL1        0.0203
     40 C          66.8820   96.4770    9.1965 C.ar    1  UNL1       -0.0015
     41 C          65.5692   95.9304    9.6737 C.ar    1  UNL1       -0.0069
     42 C          64.4114   96.8554    9.9054 C.3     1  UNL1        0.0323
@<TRIPOS>UNITY_ATOM_ATTR
33 1
charge -1
@<TRIPOS>BOND
     1    19    20    1
     2    20    13    1
     3    13    14   ar
     4    14    15   ar
     5    15     1    1
     6     1     2   am
     7     2     3    2
     8     2     4   am
     9     4    21    1
    10    21    22   ar
    11    22    23   ar
    12    23    24   ar
    13    24    27    1
    14    27    28   ar
    15    28    29   ar
    16    29    30   ar
    17    30    32    1
    18    32    33   ar
    19    32    34   ar
    20    30    31   ar
    21    24    25   ar
    22    25    26   ar
    23     4     5   am
    24     5     6    2
    25     5     7    1
    26     7     8    1
    27     8     9    1
    28     9    10    1
    29    10    35    1
    30    35    36    1
    31    36    37   ar
    32    37    38   ar
    33    38    39   ar
    34    39    40   ar
    35    40    41   ar
    36    41    42    1
    37    10    11    1
    38    11    12    1
    39    15    16   ar
    40    16    17   ar
    41    17    18   ar
    42    18    13   ar
    43     7     1    1
    44    41    36   ar
    45    26    21   ar
    46    12     7    1
    47    31    27   ar
