@<TRIPOS>MOLECULE
*****
 34 38 0 0 0
SMALL
GASTEIGER

@<TRIPOS>ATOM
      1 N          63.1508   84.6169   11.4466 N.pl3   1  UNL1       -0.3054
      2 C          63.9290   83.7973   10.4603 C.3     1  UNL1        0.0910
      3 C          63.5231   84.2240    9.0807 C.3     1  UNL1        0.0245
      4 C          62.4941   85.3071    9.2144 C.3     1  UNL1        0.0372
      5 C          61.6074   86.2403    8.4443 C.3     1  UNL1        0.0738
      6 N          60.8292   87.0597    9.4306 N.3     1  UNL1       -0.2712
      7 C          61.2350   86.6332   10.8102 C.3     1  UNL1        0.0921
      8 C          62.2640   85.5500   10.6766 C.3     1  UNL1        0.0901
      9 C          62.7199   83.3050   13.6474 C.ar    1  UNL1        0.1515
     10 C          62.8123   83.2085   15.1415 C.ar    1  UNL1        0.0382
     11 C          63.4278   84.3272   15.9288 C.ar    1  UNL1        0.0032
     12 C          63.9509   85.5424   15.2220 C.ar    1  UNL1        0.0015
     13 C          63.8586   85.6389   13.7279 C.ar    1  UNL1        0.0176
     14 C          63.2431   84.5203   12.9406 C.ar    1  UNL1        0.0823
     15 O          62.1045   82.1864   12.8602 O.3     1  UNL1       -0.4779
     16 C          62.7744   79.7827   13.5838 C.3     1  UNL1        0.0472
     17 C          61.7651   80.8913   13.5367 C.3     1  UNL1        0.1662
     18 C          60.4163   80.7049   14.1662 C.3     1  UNL1        0.0472
     19 C          59.8220   88.1198    9.0961 C.3     1  UNL1        0.0731
     20 C          60.2039   89.5682    9.1733 C.3     1  UNL1        0.0294
     21 C          60.8501   90.1084   10.4145 C.3     1  UNL1        0.0666
     22 S          62.3032   90.4809   10.4023 S.3     1  UNL1       -0.0756
     23 C          63.0810   90.5089   11.6845 C.ar    1  UNL1        0.1933
     24 N          62.8202   89.6592   12.8928 N.ar    1  UNL1       -0.1221
     25 N          63.8342   90.0167   13.9387 N.ar    1  UNL1       -0.1266
     26 C          64.7218   91.0874   13.3768 C.ar    1  UNL1        0.1862
     27 N          64.2563   91.3916   11.9837 N.ar    1  UNL1       -0.2872
     28 C          64.8601   92.4013   11.0530 C.3     1  UNL1        0.1340
     29 C          65.8729   91.7395   14.0838 C.ar    1  UNL1        0.1362
     30 C          67.2074   91.8430   13.4070 C.ar    1  UNL1        0.1211
     31 N          68.3584   92.4951   14.1141 N.ar    1  UNL1       -0.2390
     32 C          68.1749   93.0437   15.4981 C.ar    1  UNL1        0.1195
     33 C          66.8403   92.9402   16.1749 C.ar    1  UNL1        0.1196
     34 N          65.6892   92.2881   15.4679 N.ar    1  UNL1       -0.2375
@<TRIPOS>BOND
     1    16    17    1
     2    17    18    1
     3    17    15    1
     4    15     9    1
     5     9    10   ar
     6    10    11   ar
     7    11    12   ar
     8    12    13   ar
     9    13    14   ar
    10    14     1    1
    11     1     2    1
    12     2     3    1
    13     3     4    1
    14     4     5    1
    15     5     6    1
    16     6    19    1
    17    19    20    1
    18    20    21    1
    19    21    22    1
    20    22    23    1
    21    23    24   ar
    22    24    25   ar
    23    25    26   ar
    24    26    29    1
    25    29    30   ar
    26    30    31   ar
    27    31    32   ar
    28    32    33   ar
    29    33    34   ar
    30    26    27   ar
    31    27    28    1
    32     6     7    1
    33     7     8    1
    34    14     9   ar
    35     8     1    1
    36     8     4    1
    37    27    23   ar
    38    34    29   ar
@<TRIPOS>MOLECULE
*****
 34 38 0 0 0
SMALL
GASTEIGER

@<TRIPOS>ATOM
      1 N          62.7648   84.3135   10.7391 N.pl3   1  UNL1       -0.3054
      2 C          63.5540   84.0849    9.4842 C.3     1  UNL1        0.0910
      3 C          63.2769   85.2241    8.5485 C.3     1  UNL1        0.0245
      4 C          62.3165   86.1568    9.2252 C.3     1  UNL1        0.0372
      5 C          61.5518   87.4372    9.0651 C.3     1  UNL1        0.0738
      6 N          60.7626   87.6657   10.3200 N.3     1  UNL1       -0.2712
      7 C          61.0396   86.5266   11.2557 C.3     1  UNL1        0.0921
      8 C          62.0000   85.5939   10.5791 C.3     1  UNL1        0.0901
      9 C          62.9989   83.9897   13.3063 C.ar    1  UNL1        0.1515
     10 C          62.9781   83.0948   14.5100 C.ar    1  UNL1        0.0382
     11 C          62.7023   81.6291   14.3503 C.ar    1  UNL1        0.0032
     12 C          62.4473   81.0581   12.9868 C.ar    1  UNL1        0.0015
     13 C          62.4682   81.9530   11.7831 C.ar    1  UNL1        0.0176
     14 C          62.7439   83.4187   11.9429 C.ar    1  UNL1        0.0823
     15 O          63.2747   85.4554   13.4661 O.3     1  UNL1       -0.4779
     16 C          64.1488   87.1679   15.2134 C.3     1  UNL1        0.0472
     17 C          64.3469   85.9186   14.4072 C.3     1  UNL1        0.1662
     18 C          65.6174   85.1326   14.5420 C.3     1  UNL1        0.0472
     19 C          59.8557   88.8292   10.5916 C.3     1  UNL1        0.0731
     20 C          60.3888   90.2292   10.5168 C.3     1  UNL1        0.0294
     21 C          61.6645   90.5846   11.2213 C.3     1  UNL1        0.0666
     22 S          62.9040   90.8741   10.4276 S.3     1  UNL1       -0.0756
     23 C          64.0346   91.6357   11.0535 C.ar    1  UNL1        0.1933
     24 N          64.7733   92.7848   10.4340 N.ar    1  UNL1       -0.1221
     25 N          65.8202   93.2412   11.4065 N.ar    1  UNL1       -0.1266
     26 C          65.7284   92.3742   12.6271 C.ar    1  UNL1        0.1862
     27 N          64.6249   91.3820   12.4089 N.ar    1  UNL1       -0.2872
     28 C          64.1883   90.3221   13.3764 C.3     1  UNL1        0.1340
     29 C          66.5891   92.4807   13.8510 C.ar    1  UNL1        0.1362
     30 C          65.9573   92.6727   15.1977 C.ar    1  UNL1        0.1211
     31 N          66.8181   92.7793   16.4216 N.ar    1  UNL1       -0.2390
     32 C          68.3106   92.6938   16.2987 C.ar    1  UNL1        0.1195
     33 C          68.9424   92.5018   14.9518 C.ar    1  UNL1        0.1196
     34 N          68.0817   92.3953   13.7279 N.ar    1  UNL1       -0.2375
@<TRIPOS>BOND
     1    16    17    1
     2    17    18    1
     3    17    15    1
     4    15     9    1
     5     9    10   ar
     6    10    11   ar
     7    11    12   ar
     8    12    13   ar
     9    13    14   ar
    10    14     1    1
    11     1     2    1
    12     2     3    1
    13     3     4    1
    14     4     5    1
    15     5     6    1
    16     6    19    1
    17    19    20    1
    18    20    21    1
    19    21    22    1
    20    22    23    1
    21    23    24   ar
    22    24    25   ar
    23    25    26   ar
    24    26    29    1
    25    29    30   ar
    26    30    31   ar
    27    31    32   ar
    28    32    33   ar
    29    33    34   ar
    30    26    27   ar
    31    27    28    1
    32     6     7    1
    33     7     8    1
    34    14     9   ar
    35     8     1    1
    36     8     4    1
    37    27    23   ar
    38    34    29   ar
@<TRIPOS>MOLECULE
*****
 34 38 0 0 0
SMALL
GASTEIGER

@<TRIPOS>ATOM
      1 N          63.7107   89.2178   14.8841 N.pl3   1  UNL1       -0.3054
      2 C          63.1273   89.6268   16.2041 C.3     1  UNL1        0.0910
      3 C          63.0493   88.4073   17.0741 C.3     1  UNL1        0.0245
      4 C          63.5846   87.2448   16.2918 C.3     1  UNL1        0.0372
      5 C          63.8672   85.7726   16.3459 C.3     1  UNL1        0.0738
      6 N          64.4506   85.3638   15.0260 N.3     1  UNL1       -0.2712
      7 C          64.5286   86.5831   14.1560 C.3     1  UNL1        0.0921
      8 C          63.9933   87.7457   14.9383 C.3     1  UNL1        0.0901
      9 C          65.0299   91.1768   13.8014 C.ar    1  UNL1        0.1515
     10 C          65.2857   92.0812   12.6323 C.ar    1  UNL1        0.0382
     11 C          64.4784   91.9311   11.3771 C.ar    1  UNL1        0.0032
     12 C          63.4151   90.8766   11.2908 C.ar    1  UNL1        0.0015
     13 C          63.1593   89.9722   12.4599 C.ar    1  UNL1        0.0176
     14 C          63.9666   90.1223   13.7151 C.ar    1  UNL1        0.0823
     15 O          65.8372   91.3270   15.0566 O.3     1  UNL1       -0.4779
     16 C          67.4669   93.0570   16.1060 C.3     1  UNL1        0.0472
     17 C          67.1406   92.0687   15.0258 C.3     1  UNL1        0.1662
     18 C          68.1178   91.8222   13.9147 C.3     1  UNL1        0.0472
     19 C          64.8806   83.9787   14.6431 C.3     1  UNL1        0.0731
     20 C          63.8703   82.9934   14.1347 C.3     1  UNL1        0.0294
     21 C          63.9234   82.5334   12.7080 C.3     1  UNL1        0.0666
     22 S          64.0397   83.5378   11.6000 S.3     1  UNL1       -0.0756
     23 C          62.9808   84.5854   11.4232 C.ar    1  UNL1        0.1933
     24 N          62.1740   85.2172   12.5185 N.ar    1  UNL1       -0.1221
     25 N          61.2374   86.2075   11.8923 N.ar    1  UNL1       -0.1266
     26 C          61.4653   86.1877   10.4099 C.ar    1  UNL1        0.1862
     27 N          62.5428   85.1852   10.1199 N.ar    1  UNL1       -0.2872
     28 C          63.0868   84.8427    8.7647 C.3     1  UNL1        0.1340
     29 C          60.7426   87.0235    9.3954 C.ar    1  UNL1        0.1362
     30 C          60.9302   88.5116    9.3790 C.ar    1  UNL1        0.1211
     31 N          60.2075   89.3475    8.3645 N.ar    1  UNL1       -0.2390
     32 C          59.2973   88.6952    7.3665 C.ar    1  UNL1        0.1195
     33 C          59.1097   87.2071    7.3830 C.ar    1  UNL1        0.1196
     34 N          59.8323   86.3712    8.3974 N.ar    1  UNL1       -0.2375
@<TRIPOS>BOND
     1    16    17    1
     2    17    18    1
     3    17    15    1
     4    15     9    1
     5     9    10   ar
     6    10    11   ar
     7    11    12   ar
     8    12    13   ar
     9    13    14   ar
    10    14     1    1
    11     1     2    1
    12     2     3    1
    13     3     4    1
    14     4     5    1
    15     5     6    1
    16     6    19    1
    17    19    20    1
    18    20    21    1
    19    21    22    1
    20    22    23    1
    21    23    24   ar
    22    24    25   ar
    23    25    26   ar
    24    26    29    1
    25    29    30   ar
    26    30    31   ar
    27    31    32   ar
    28    32    33   ar
    29    33    34   ar
    30    26    27   ar
    31    27    28    1
    32     6     7    1
    33     7     8    1
    34    14     9   ar
    35     8     1    1
    36     8     4    1
    37    27    23   ar
    38    34    29   ar
@<TRIPOS>MOLECULE
*****
 34 38 0 0 0
SMALL
GASTEIGER

@<TRIPOS>ATOM
      1 N          62.8750   83.9900   10.7411 N.pl3   1  UNL1       -0.3054
      2 C          63.6075   83.8481    9.4398 C.3     1  UNL1        0.0910
      3 C          63.3007   85.0534    8.6014 C.3     1  UNL1        0.0245
      4 C          62.3786   85.9403    9.3845 C.3     1  UNL1        0.0372
      5 C          61.6192   87.2334    9.3503 C.3     1  UNL1        0.0738
      6 N          60.8867   87.3753   10.6515 N.3     1  UNL1       -0.2712
      7 C          61.1934   86.1700   11.4899 C.3     1  UNL1        0.0921
      8 C          62.1155   85.2831   10.7069 C.3     1  UNL1        0.0901
      9 C          63.0695   83.4992   13.2849 C.ar    1  UNL1        0.1515
     10 C          63.0924   82.5199   14.4210 C.ar    1  UNL1        0.0382
     11 C          62.9437   81.0523   14.1492 C.ar    1  UNL1        0.0032
     12 C          62.7722   80.5638   12.7414 C.ar    1  UNL1        0.0015
     13 C          62.7493   81.5431   11.6053 C.ar    1  UNL1        0.0176
     14 C          62.8979   83.0108   11.8771 C.ar    1  UNL1        0.0823
     15 O          63.2181   84.9668   13.5568 O.3     1  UNL1       -0.4779
     16 C          65.6671   84.8197   14.4114 C.3     1  UNL1        0.0472
     17 C          64.3094   85.4551   14.4628 C.3     1  UNL1        0.1662
     18 C          64.0428   86.5787   15.4201 C.3     1  UNL1        0.0472
     19 C          60.0026   88.5213   11.0452 C.3     1  UNL1        0.0731
     20 C          60.5567   89.6489   11.8647 C.3     1  UNL1        0.0294
     21 C          61.9639   90.1177   11.6409 C.3     1  UNL1        0.0666
     22 S          62.9087   90.2346   12.8001 S.3     1  UNL1       -0.0756
     23 C          63.9758   91.2888   12.7946 C.ar    1  UNL1        0.1933
     24 N          64.7604   91.7554   13.9848 N.ar    1  UNL1       -0.1221
     25 N          65.7152   92.8164   13.5237 N.ar    1  UNL1       -0.1266
     26 C          65.5207   93.0056   12.0484 C.ar    1  UNL1        0.1862
     27 N          64.4457   92.0614   11.5978 N.ar    1  UNL1       -0.2872
     28 C          63.9310   91.9155   10.1965 C.3     1  UNL1        0.1340
     29 C          66.2696   93.9695   11.1767 C.ar    1  UNL1        0.1362
     30 C          67.2740   93.4603   10.1859 C.ar    1  UNL1        0.1211
     31 N          68.0229   94.4244    9.3142 N.ar    1  UNL1       -0.2390
     32 C          67.7675   95.8976    9.4335 C.ar    1  UNL1        0.1195
     33 C          66.7631   96.4069   10.4244 C.ar    1  UNL1        0.1196
     34 N          66.0141   95.4429   11.2960 N.ar    1  UNL1       -0.2375
@<TRIPOS>BOND
     1    16    17    1
     2    17    18    1
     3    17    15    1
     4    15     9    1
     5     9    10   ar
     6    10    11   ar
     7    11    12   ar
     8    12    13   ar
     9    13    14   ar
    10    14     1    1
    11     1     2    1
    12     2     3    1
    13     3     4    1
    14     4     5    1
    15     5     6    1
    16     6    19    1
    17    19    20    1
    18    20    21    1
    19    21    22    1
    20    22    23    1
    21    23    24   ar
    22    24    25   ar
    23    25    26   ar
    24    26    29    1
    25    29    30   ar
    26    30    31   ar
    27    31    32   ar
    28    32    33   ar
    29    33    34   ar
    30    26    27   ar
    31    27    28    1
    32     6     7    1
    33     7     8    1
    34    14     9   ar
    35     8     1    1
    36     8     4    1
    37    27    23   ar
    38    34    29   ar
@<TRIPOS>MOLECULE
*****
 34 38 0 0 0
SMALL
GASTEIGER

@<TRIPOS>ATOM
      1 N          64.5874   90.4521   15.1765 N.pl3   1  UNL1       -0.3054
      2 C          63.8113   91.1072   16.2804 C.3     1  UNL1        0.0910
      3 C          63.0342   90.0421   16.9958 C.3     1  UNL1        0.0245
      4 C          63.3300   88.7289   16.3341 C.3     1  UNL1        0.0372
      5 C          63.0326   87.2590   16.3672 C.3     1  UNL1        0.0738
      6 N          63.8087   86.6041   15.2633 N.3     1  UNL1       -0.2712
      7 C          64.5858   87.6691   14.5479 C.3     1  UNL1        0.0921
      8 C          64.2900   88.9823   15.2097 C.3     1  UNL1        0.0901
      9 C          64.9463   91.7388   12.9482 C.ar    1  UNL1        0.1515
     10 C          65.8596   92.4320   11.9810 C.ar    1  UNL1        0.0382
     11 C          67.3272   92.5315   12.2748 C.ar    1  UNL1        0.0032
     12 C          67.8815   91.9380   13.5359 C.ar    1  UNL1        0.0015
     13 C          66.9682   91.2448   14.5031 C.ar    1  UNL1        0.0176
     14 C          65.5006   91.1453   14.2093 C.ar    1  UNL1        0.0823
     15 O          63.4788   91.6393   12.6543 O.3     1  UNL1       -0.4779
     16 C          62.9124   91.1383   10.1687 C.3     1  UNL1        0.0472
     17 C          62.9876   90.6931   11.5991 C.3     1  UNL1        0.1662
     18 C          62.5717   89.3016   11.9743 C.3     1  UNL1        0.0472
     19 C          63.8079   85.1410   14.9328 C.3     1  UNL1        0.0731
     20 C          65.0378   84.5005   14.3610 C.3     1  UNL1        0.0294
     21 C          64.9799   83.8295   13.0207 C.3     1  UNL1        0.0666
     22 S          63.6537   83.4731   12.4170 S.3     1  UNL1       -0.0756
     23 C          63.2290   84.0947   11.1196 C.ar    1  UNL1        0.1933
     24 N          63.7560   83.7441    9.7597 N.ar    1  UNL1       -0.1221
     25 N          63.0553   84.6088    8.7540 N.ar    1  UNL1       -0.1266
     26 C          62.0953   85.4938    9.4923 C.ar    1  UNL1        0.1862
     27 N          62.2026   85.1761   10.9544 N.ar    1  UNL1       -0.2872
     28 C          61.4208   85.8257   12.0574 C.3     1  UNL1        0.1340
     29 C          61.1874   86.5168    8.8767 C.ar    1  UNL1        0.1362
     30 C          60.1560   86.0966    7.8721 C.ar    1  UNL1        0.1211
     31 N          59.2480   87.1197    7.2565 N.ar    1  UNL1       -0.2390
     32 C          59.3715   88.5631    7.6456 C.ar    1  UNL1        0.1195
     33 C          60.4030   88.9834    8.6503 C.ar    1  UNL1        0.1196
     34 N          61.3110   87.9603    9.2659 N.ar    1  UNL1       -0.2375
@<TRIPOS>BOND
     1    16    17    1
     2    17    18    1
     3    17    15    1
     4    15     9    1
     5     9    10   ar
     6    10    11   ar
     7    11    12   ar
     8    12    13   ar
     9    13    14   ar
    10    14     1    1
    11     1     2    1
    12     2     3    1
    13     3     4    1
    14     4     5    1
    15     5     6    1
    16     6    19    1
    17    19    20    1
    18    20    21    1
    19    21    22    1
    20    22    23    1
    21    23    24   ar
    22    24    25   ar
    23    25    26   ar
    24    26    29    1
    25    29    30   ar
    26    30    31   ar
    27    31    32   ar
    28    32    33   ar
    29    33    34   ar
    30    26    27   ar
    31    27    28    1
    32     6     7    1
    33     7     8    1
    34    14     9   ar
    35     8     1    1
    36     8     4    1
    37    27    23   ar
    38    34    29   ar
@<TRIPOS>MOLECULE
*****
 34 38 0 0 0
SMALL
GASTEIGER

@<TRIPOS>ATOM
      1 N          61.8152   86.9900   10.6180 N.pl3   1  UNL1       -0.3054
      2 C          60.5193   87.3252    9.9411 C.3     1  UNL1        0.0910
      3 C          60.1737   88.7452   10.2788 C.3     1  UNL1        0.0245
      4 C          61.2561   89.2877   11.1644 C.3     1  UNL1        0.0372
      5 C          61.7114   90.5005   11.9205 C.3     1  UNL1        0.0738
      6 N          63.0073   90.1653   12.5973 N.3     1  UNL1       -0.2712
      7 C          63.3529   88.7453   12.2597 C.3     1  UNL1        0.0921
      8 C          62.2706   88.2029   11.3741 C.3     1  UNL1        0.0901
      9 C          62.9006   85.0879    9.2202 C.ar    1  UNL1        0.1515
     10 C          63.6157   83.7710    9.1530 C.ar    1  UNL1        0.0382
     11 C          63.9605   83.0394   10.4162 C.ar    1  UNL1        0.0032
     12 C          63.5902   83.6246   11.7467 C.ar    1  UNL1        0.0015
     13 C          62.8751   84.9415   11.8139 C.ar    1  UNL1        0.0176
     14 C          62.5303   85.6731   10.5507 C.ar    1  UNL1        0.0823
     15 O          62.5559   85.8195    7.9569 O.3     1  UNL1       -0.4779
     16 C          60.0619   85.5974    7.2637 C.3     1  UNL1        0.0472
     17 C          61.5079   85.2709    7.0346 C.3     1  UNL1        0.1662
     18 C          61.9059   84.3957    5.8831 C.3     1  UNL1        0.0472
     19 C          63.8157   91.0881   13.4604 C.3     1  UNL1        0.0731
     20 C          64.0836   90.7328   14.8928 C.3     1  UNL1        0.0294
     21 C          63.0575   89.9752   15.6822 C.3     1  UNL1        0.0666
     22 S          63.4921   88.9727   16.7101 S.3     1  UNL1       -0.0756
     23 C          62.9699   87.5676   16.6549 C.ar    1  UNL1        0.1933
     24 N          61.8252   87.0204   17.4550 N.ar    1  UNL1       -0.1221
     25 N          61.6486   85.5776   17.0846 N.ar    1  UNL1       -0.1266
     26 C          62.6841   85.2331   16.0556 C.ar    1  UNL1        0.1862
     27 N          63.5007   86.4630   15.7900 N.ar    1  UNL1       -0.2872
     28 C          64.6470   86.5696   14.8284 C.3     1  UNL1        0.1340
     29 C          62.8704   83.8939   15.4061 C.ar    1  UNL1        0.1362
     30 C          64.2456   83.3106   15.2712 C.ar    1  UNL1        0.1211
     31 N          64.4318   81.9713   14.6217 N.ar    1  UNL1       -0.2390
     32 C          63.2428   81.2155   14.1071 C.ar    1  UNL1        0.1195
     33 C          61.8675   81.7989   14.2420 C.ar    1  UNL1        0.1196
     34 N          61.6812   83.1381   14.8915 N.ar    1  UNL1       -0.2375
@<TRIPOS>BOND
     1    16    17    1
     2    17    18    1
     3    17    15    1
     4    15     9    1
     5     9    10   ar
     6    10    11   ar
     7    11    12   ar
     8    12    13   ar
     9    13    14   ar
    10    14     1    1
    11     1     2    1
    12     2     3    1
    13     3     4    1
    14     4     5    1
    15     5     6    1
    16     6    19    1
    17    19    20    1
    18    20    21    1
    19    21    22    1
    20    22    23    1
    21    23    24   ar
    22    24    25   ar
    23    25    26   ar
    24    26    29    1
    25    29    30   ar
    26    30    31   ar
    27    31    32   ar
    28    32    33   ar
    29    33    34   ar
    30    26    27   ar
    31    27    28    1
    32     6     7    1
    33     7     8    1
    34    14     9   ar
    35     8     1    1
    36     8     4    1
    37    27    23   ar
    38    34    29   ar
@<TRIPOS>MOLECULE
*****
 34 38 0 0 0
SMALL
GASTEIGER

@<TRIPOS>ATOM
      1 N          62.3007   86.8952   10.7838 N.pl3   1  UNL1       -0.3054
      2 C          62.6789   87.9032   11.8282 C.3     1  UNL1        0.0910
      3 C          61.9838   89.1918   11.5020 C.3     1  UNL1        0.0245
      4 C          61.1759   88.9802   10.2560 C.3     1  UNL1        0.0372
      5 C          60.2470   89.6458    9.2843 C.3     1  UNL1        0.0738
      6 N          59.8688   88.6378    8.2399 N.3     1  UNL1       -0.2712
      7 C          60.5639   87.3492    8.5661 C.3     1  UNL1        0.0921
      8 C          61.3718   87.5608    9.8121 C.3     1  UNL1        0.0901
      9 C          62.7995   84.6372   11.9680 C.ar    1  UNL1        0.1515
     10 C          63.2679   83.2135   11.9059 C.ar    1  UNL1        0.0382
     11 C          63.7058   82.6242   10.5979 C.ar    1  UNL1        0.0032
     12 C          63.6754   83.4587    9.3518 C.ar    1  UNL1        0.0015
     13 C          63.2070   84.8823    9.4138 C.ar    1  UNL1        0.0176
     14 C          62.7690   85.4716   10.7219 C.ar    1  UNL1        0.0823
     15 O          62.3616   85.2263   13.2760 O.3     1  UNL1       -0.4779
     16 C          64.4014   85.7074   14.8114 C.3     1  UNL1        0.0472
     17 C          63.1426   84.9435   14.5250 C.3     1  UNL1        0.1662
     18 C          62.6650   83.8969   15.4875 C.3     1  UNL1        0.0472
     19 C          58.9558   88.8765    7.0740 C.3     1  UNL1        0.0731
     20 C          59.4095   89.7326    5.9290 C.3     1  UNL1        0.0294
     21 C          58.8619   91.1196    5.7665 C.3     1  UNL1        0.0666
     22 S          59.0221   91.8410    4.4612 S.3     1  UNL1       -0.0756
     23 C          60.3855   92.0065    3.8582 C.ar    1  UNL1        0.1933
     24 N          61.6603   91.4174    4.3854 N.ar    1  UNL1       -0.1221
     25 N          62.7762   91.8369    3.4751 N.ar    1  UNL1       -0.1266
     26 C          62.1912   92.6854    2.3852 C.ar    1  UNL1        0.1862
     27 N          60.7137   92.7902    2.6220 N.ar    1  UNL1       -0.2872
     28 C          59.7360   93.5460    1.7717 C.3     1  UNL1        0.1340
     29 C          62.9503   93.3180    1.2567 C.ar    1  UNL1        0.1362
     30 C          64.2979   93.9269    1.5078 C.ar    1  UNL1        0.1211
     31 N          65.0571   94.5596    0.3792 N.ar    1  UNL1       -0.2390
     32 C          64.4686   94.5832   -1.0003 C.ar    1  UNL1        0.1195
     33 C          63.1209   93.9742   -1.2514 C.ar    1  UNL1        0.1196
     34 N          62.3617   93.3416   -0.1229 N.ar    1  UNL1       -0.2375
@<TRIPOS>BOND
     1    16    17    1
     2    17    18    1
     3    17    15    1
     4    15     9    1
     5     9    10   ar
     6    10    11   ar
     7    11    12   ar
     8    12    13   ar
     9    13    14   ar
    10    14     1    1
    11     1     2    1
    12     2     3    1
    13     3     4    1
    14     4     5    1
    15     5     6    1
    16     6    19    1
    17    19    20    1
    18    20    21    1
    19    21    22    1
    20    22    23    1
    21    23    24   ar
    22    24    25   ar
    23    25    26   ar
    24    26    29    1
    25    29    30   ar
    26    30    31   ar
    27    31    32   ar
    28    32    33   ar
    29    33    34   ar
    30    26    27   ar
    31    27    28    1
    32     6     7    1
    33     7     8    1
    34    14     9   ar
    35     8     1    1
    36     8     4    1
    37    27    23   ar
    38    34    29   ar
@<TRIPOS>MOLECULE
*****
 34 38 0 0 0
SMALL
GASTEIGER

@<TRIPOS>ATOM
      1 N          62.8187   84.8613   10.8052 N.pl3   1  UNL1       -0.3054
      2 C          63.6326   83.8651   10.0337 C.3     1  UNL1        0.0910
      3 C          64.4052   83.0369   11.0171 C.3     1  UNL1        0.0245
      4 C          64.0689   83.5212   12.3964 C.3     1  UNL1        0.0372
      5 C          64.3385   83.3087   13.8566 C.3     1  UNL1        0.0738
      6 N          63.5246   84.3048   14.6280 N.3     1  UNL1       -0.2712
      7 C          62.7519   85.1330   13.6447 C.3     1  UNL1        0.0921
      8 C          63.0883   84.6487   12.2654 C.3     1  UNL1        0.0901
      9 C          61.8058   86.0541    8.7313 C.ar    1  UNL1        0.1515
     10 C          60.8841   87.0824    8.1455 C.ar    1  UNL1        0.0382
     11 C          60.0535   87.9460    9.0479 C.ar    1  UNL1        0.0032
     12 C          60.1446   87.7814   10.5360 C.ar    1  UNL1        0.0015
     13 C          61.0664   86.7531   11.1218 C.ar    1  UNL1        0.0176
     14 C          61.8970   85.8895   10.2194 C.ar    1  UNL1        0.0823
     15 O          62.6364   85.1905    7.8289 O.3     1  UNL1       -0.4779
     16 C          62.9385   84.6198    5.3124 C.3     1  UNL1        0.0472
     17 C          62.0680   84.6968    6.5315 C.3     1  UNL1        0.1662
     18 C          60.6292   84.2800    6.4533 C.3     1  UNL1        0.0472
     19 C          63.4895   84.4477   16.1208 C.3     1  UNL1        0.0731
     20 C          62.7685   85.6045   16.7467 C.3     1  UNL1        0.0294
     21 C          63.4344   86.9459   16.8320 C.3     1  UNL1        0.0666
     22 S          62.6242   88.1973   16.6658 S.3     1  UNL1       -0.0756
     23 C          63.2678   89.4418   16.1301 C.ar    1  UNL1        0.1933
     24 N          63.3701   90.7581   16.8421 N.ar    1  UNL1       -0.1221
     25 N          64.0877   91.7184   15.9405 N.ar    1  UNL1       -0.1266
     26 C          64.4289   90.9956   14.6712 C.ar    1  UNL1        0.1862
     27 N          63.9222   89.5886   14.7884 N.ar    1  UNL1       -0.2872
     28 C          64.0478   88.5167   13.7467 C.3     1  UNL1        0.1340
     29 C          65.1502   91.5775   13.4917 C.ar    1  UNL1        0.1362
     30 C          66.5801   92.0101   13.6258 C.ar    1  UNL1        0.1211
     31 N          67.3013   92.5921   12.4463 N.ar    1  UNL1       -0.2390
     32 C          66.5926   92.7415   11.1327 C.ar    1  UNL1        0.1195
     33 C          65.1626   92.3089   10.9987 C.ar    1  UNL1        0.1196
     34 N          64.4413   91.7269   12.1781 N.ar    1  UNL1       -0.2375
@<TRIPOS>BOND
     1    16    17    1
     2    17    18    1
     3    17    15    1
     4    15     9    1
     5     9    10   ar
     6    10    11   ar
     7    11    12   ar
     8    12    13   ar
     9    13    14   ar
    10    14     1    1
    11     1     2    1
    12     2     3    1
    13     3     4    1
    14     4     5    1
    15     5     6    1
    16     6    19    1
    17    19    20    1
    18    20    21    1
    19    21    22    1
    20    22    23    1
    21    23    24   ar
    22    24    25   ar
    23    25    26   ar
    24    26    29    1
    25    29    30   ar
    26    30    31   ar
    27    31    32   ar
    28    32    33   ar
    29    33    34   ar
    30    26    27   ar
    31    27    28    1
    32     6     7    1
    33     7     8    1
    34    14     9   ar
    35     8     1    1
    36     8     4    1
    37    27    23   ar
    38    34    29   ar
@<TRIPOS>MOLECULE
*****
 34 38 0 0 0
SMALL
GASTEIGER

@<TRIPOS>ATOM
      1 N          62.6341   89.4625   10.4621 N.pl3   1  UNL1       -0.3054
      2 C          62.9310   90.8012    9.8539 C.3     1  UNL1        0.0910
      3 C          63.6025   91.6452   10.8964 C.3     1  UNL1        0.0245
      4 C          63.7207   90.8282   12.1488 C.3     1  UNL1        0.0372
      5 C          64.2087   90.8449   13.5671 C.3     1  UNL1        0.0738
      6 N          63.9118   89.5062   14.1752 N.3     1  UNL1       -0.2712
      7 C          63.2403   88.6622   13.1328 C.3     1  UNL1        0.0921
      8 C          63.1221   89.4792   11.8804 C.3     1  UNL1        0.0901
      9 C          60.5100   88.3869    9.4223 C.ar    1  UNL1        0.1515
     10 C          59.8424   87.2339    8.7331 C.ar    1  UNL1        0.0382
     11 C          60.6310   86.0036    8.3948 C.ar    1  UNL1        0.0032
     12 C          62.0874   85.9263    8.7455 C.ar    1  UNL1        0.0015
     13 C          62.7550   87.0793    9.4346 C.ar    1  UNL1        0.0176
     14 C          61.9664   88.3096    9.7730 C.ar    1  UNL1        0.0823
     15 O          59.7213   89.6171    9.7606 O.3     1  UNL1       -0.4779
     16 C          58.9461   91.2877   11.5931 C.3     1  UNL1        0.0472
     17 C          59.3503   89.9018   11.1858 C.3     1  UNL1        0.1662
     18 C          59.3835   88.8006   12.2038 C.3     1  UNL1        0.0472
     19 C          64.2305   89.0855   15.5792 C.3     1  UNL1        0.0731
     20 C          63.1274   88.9254   16.5829 C.3     1  UNL1        0.0294
     21 C          62.4887   87.5838   16.7879 C.3     1  UNL1        0.0666
     22 S          63.3447   86.3688   16.9908 S.3     1  UNL1       -0.0756
     23 C          63.8967   85.6338   15.8055 C.ar    1  UNL1        0.1933
     24 N          65.2548   85.8310   15.1999 N.ar    1  UNL1       -0.1221
     25 N          65.3850   84.8916   14.0377 N.ar    1  UNL1       -0.1266
     26 C          64.1074   84.1138   13.9250 C.ar    1  UNL1        0.1862
     27 N          63.1876   84.5725   15.0176 N.ar    1  UNL1       -0.2872
     28 C          61.8019   84.0598   15.2767 C.3     1  UNL1        0.1340
     29 C          63.8030   83.0620   12.8999 C.ar    1  UNL1        0.1362
     30 C          64.1455   83.2979   11.4588 C.ar    1  UNL1        0.1211
     31 N          63.8411   82.2460   10.4336 N.ar    1  UNL1       -0.2390
     32 C          63.1942   80.9582   10.8496 C.ar    1  UNL1        0.1195
     33 C          62.8516   80.7223   12.2908 C.ar    1  UNL1        0.1196
     34 N          63.1560   81.7741   13.3160 N.ar    1  UNL1       -0.2375
@<TRIPOS>BOND
     1    16    17    1
     2    17    18    1
     3    17    15    1
     4    15     9    1
     5     9    10   ar
     6    10    11   ar
     7    11    12   ar
     8    12    13   ar
     9    13    14   ar
    10    14     1    1
    11     1     2    1
    12     2     3    1
    13     3     4    1
    14     4     5    1
    15     5     6    1
    16     6    19    1
    17    19    20    1
    18    20    21    1
    19    21    22    1
    20    22    23    1
    21    23    24   ar
    22    24    25   ar
    23    25    26   ar
    24    26    29    1
    25    29    30   ar
    26    30    31   ar
    27    31    32   ar
    28    32    33   ar
    29    33    34   ar
    30    26    27   ar
    31    27    28    1
    32     6     7    1
    33     7     8    1
    34    14     9   ar
    35     8     1    1
    36     8     4    1
    37    27    23   ar
    38    34    29   ar
