@<TRIPOS>MOLECULE
*****
 14 15 0 0 0
SMALL
GASTEIGER

@<TRIPOS>ATOM
      1 C          65.7412   92.4118   12.3715 C.1     1  UNL1       -0.0399
      2 C          65.1175   91.5528   13.4313 C.1     1  UNL1       -0.0567
      3 C          67.1761   96.6141    9.5144 C.3     1  UNL1        0.0594
      4 C          67.0244   95.2025    9.9985 C.ar    1  UNL1        0.0893
      5 N          66.2457   94.7621   11.2027 N.ar    1  UNL1       -0.2344
      6 C          66.3649   93.2708   11.3118 C.ar    1  UNL1        0.1295
      7 C          67.2172   92.7895   10.1752 C.ar    1  UNL1        0.0641
      8 S          67.6249   93.9833    9.3636 S.2     1  UNL1       -0.0695
      9 C          64.4938   90.6937   14.4910 C.ar    1  UNL1        0.0612
     10 C          64.4233   89.2068   14.3059 C.ar    1  UNL1        0.0114
     11 C          63.7996   88.3478   15.3656 C.ar    1  UNL1        0.0213
     12 C          63.2464   88.9757   16.6105 C.ar    1  UNL1        0.0989
     13 N          63.3168   90.4625   16.7956 N.ar    1  UNL1       -0.2417
     14 C          63.9405   91.3215   15.7359 C.ar    1  UNL1        0.1071
@<TRIPOS>BOND
     1     3     4    1
     2     4     5   ar
     3     5     6   ar
     4     6     1    1
     5     1     2    3
     6     2     9    1
     7     9    10   ar
     8    10    11   ar
     9    11    12   ar
    10    12    13   ar
    11    13    14   ar
    12     6     7   ar
    13     7     8   ar
    14     8     4   ar
    15    14     9   ar
@<TRIPOS>MOLECULE
*****
 14 15 0 0 0
SMALL
GASTEIGER

@<TRIPOS>ATOM
      1 C          63.6451   90.8930   10.9325 C.1     1  UNL1       -0.0399
      2 C          62.6907   89.8804   10.3724 C.1     1  UNL1       -0.0567
      3 C          66.6054   93.6768   14.3042 C.3     1  UNL1        0.0594
      4 C          65.9602   93.1852   13.0425 C.ar    1  UNL1        0.0893
      5 N          64.9857   92.0499   12.9349 N.ar    1  UNL1       -0.2344
      6 C          64.5995   91.9057   11.4926 C.ar    1  UNL1        0.1295
      7 C          65.3352   92.9518   10.7089 C.ar    1  UNL1        0.0641
      8 S          66.1762   93.7426   11.6667 S.2     1  UNL1       -0.0695
      9 C          61.7363   88.8677    9.8123 C.ar    1  UNL1        0.0612
     10 C          61.9994   87.4034   10.0028 C.ar    1  UNL1        0.0114
     11 C          61.0450   86.3908    9.4427 C.ar    1  UNL1        0.0213
     12 C          59.8275   86.8426    8.6921 C.ar    1  UNL1        0.0989
     13 N          59.5643   88.3070    8.5016 N.ar    1  UNL1       -0.2417
     14 C          60.5187   89.3195    9.0617 C.ar    1  UNL1        0.1071
@<TRIPOS>BOND
     1     3     4    1
     2     4     5   ar
     3     5     6   ar
     4     6     1    1
     5     1     2    3
     6     2     9    1
     7     9    10   ar
     8    10    11   ar
     9    11    12   ar
    10    12    13   ar
    11    13    14   ar
    12     6     7   ar
    13     7     8   ar
    14     8     4   ar
    15    14     9   ar
@<TRIPOS>MOLECULE
*****
 14 15 0 0 0
SMALL
GASTEIGER

@<TRIPOS>ATOM
      1 C          61.6422   85.9549   10.9191 C.1     1  UNL1       -0.0399
      2 C          62.1589   84.7566   11.6586 C.1     1  UNL1       -0.0567
      3 C          59.4008   88.9993    7.2326 C.3     1  UNL1        0.0594
      4 C          60.0950   88.5526    8.4850 C.ar    1  UNL1        0.0893
      5 N          60.4415   87.1380    8.8445 N.ar    1  UNL1       -0.2344
      6 C          61.1253   87.1533   10.1795 C.ar    1  UNL1        0.1295
      7 C          61.2015   88.5772   10.6451 C.ar    1  UNL1        0.0641
      8 S          60.5648   89.4420    9.5979 S.2     1  UNL1       -0.0695
      9 C          62.6758   83.5583   12.3981 C.ar    1  UNL1        0.0612
     10 C          62.6444   82.2059   11.7500 C.ar    1  UNL1        0.0114
     11 C          63.1613   81.0077   12.4895 C.ar    1  UNL1        0.0213
     12 C          63.7095   81.1617   13.8772 C.ar    1  UNL1        0.0989
     13 N          63.7408   82.5141   14.5254 N.ar    1  UNL1       -0.2417
     14 C          63.2240   83.7123   13.7859 C.ar    1  UNL1        0.1071
@<TRIPOS>BOND
     1     3     4    1
     2     4     5   ar
     3     5     6   ar
     4     6     1    1
     5     1     2    3
     6     2     9    1
     7     9    10   ar
     8    10    11   ar
     9    11    12   ar
    10    12    13   ar
    11    13    14   ar
    12     6     7   ar
    13     7     8   ar
    14     8     4   ar
    15    14     9   ar
@<TRIPOS>MOLECULE
*****
 14 15 0 0 0
SMALL
GASTEIGER

@<TRIPOS>ATOM
      1 C          62.2058   86.0742   11.4388 C.1     1  UNL1       -0.0399
      2 C          62.4353   84.7096   12.0176 C.1     1  UNL1       -0.0567
      3 C          62.7791   91.1878   10.2537 C.3     1  UNL1        0.0594
      4 C          62.2400   89.7894   10.3152 C.ar    1  UNL1        0.0893
      5 N          62.8392   88.6462   11.0796 N.ar    1  UNL1       -0.2344
      6 C          61.9764   87.4390   10.8599 C.ar    1  UNL1        0.1295
      7 C          60.8441   87.8360    9.9599 C.ar    1  UNL1        0.0641
      8 S          61.0069   89.2886    9.6232 S.2     1  UNL1       -0.0695
      9 C          62.6647   83.3449   12.5965 C.ar    1  UNL1        0.0612
     10 C          62.6876   82.1435   11.6986 C.ar    1  UNL1        0.0114
     11 C          62.9170   80.7789   12.2775 C.ar    1  UNL1        0.0213
     12 C          63.1235   80.6157   13.7542 C.ar    1  UNL1        0.0989
     13 N          63.1006   81.8170   14.6521 N.ar    1  UNL1       -0.2417
     14 C          62.8712   83.1816   14.0732 C.ar    1  UNL1        0.1071
@<TRIPOS>BOND
     1     3     4    1
     2     4     5   ar
     3     5     6   ar
     4     6     1    1
     5     1     2    3
     6     2     9    1
     7     9    10   ar
     8    10    11   ar
     9    11    12   ar
    10    12    13   ar
    11    13    14   ar
    12     6     7   ar
    13     7     8   ar
    14     8     4   ar
    15    14     9   ar
@<TRIPOS>MOLECULE
*****
 14 15 0 0 0
SMALL
GASTEIGER

@<TRIPOS>ATOM
      1 C          62.0717   85.1603   11.3647 C.1     1  UNL1       -0.0399
      2 C          61.3957   86.0781   10.3897 C.1     1  UNL1       -0.0567
      3 C          63.6685   80.8006   13.8795 C.3     1  UNL1        0.0594
      4 C          63.4817   82.2385   13.4956 C.ar    1  UNL1        0.0893
      5 N          62.6494   82.7458   12.3554 N.ar    1  UNL1       -0.2344
      6 C          62.7478   84.2425   12.3397 C.ar    1  UNL1        0.1295
      7 C          63.6409   84.6603   13.4701 C.ar    1  UNL1        0.0641
      8 S          64.0945   83.4218   14.1845 S.2     1  UNL1       -0.0695
      9 C          60.7196   86.9959    9.4146 C.ar    1  UNL1        0.0612
     10 C          59.8619   86.4294    8.3223 C.ar    1  UNL1        0.0114
     11 C          59.1859   87.3472    7.3473 C.ar    1  UNL1        0.0213
     12 C          59.3676   88.8315    7.4647 C.ar    1  UNL1        0.0989
     13 N          60.2253   89.3980    8.5571 N.ar    1  UNL1       -0.2417
     14 C          60.9014   88.4802    9.5320 C.ar    1  UNL1        0.1071
@<TRIPOS>BOND
     1     3     4    1
     2     4     5   ar
     3     5     6   ar
     4     6     1    1
     5     1     2    3
     6     2     9    1
     7     9    10   ar
     8    10    11   ar
     9    11    12   ar
    10    12    13   ar
    11    13    14   ar
    12     6     7   ar
    13     7     8   ar
    14     8     4   ar
    15    14     9   ar
@<TRIPOS>MOLECULE
*****
 14 15 0 0 0
SMALL
GASTEIGER

@<TRIPOS>ATOM
      1 C          62.1463   87.8722   10.4048 C.1     1  UNL1       -0.0399
      2 C          62.7737   88.6592   11.5170 C.1     1  UNL1       -0.0567
      3 C          61.4780   84.5134    6.3857 C.3     1  UNL1        0.0594
      4 C          61.2117   85.5413    7.4452 C.ar    1  UNL1        0.0893
      5 N          62.2153   86.0841    8.4190 N.ar    1  UNL1       -0.2344
      6 C          61.5189   87.0851    9.2926 C.ar    1  UNL1        0.1295
      7 C          60.0850   87.1610    8.8587 C.ar    1  UNL1        0.0641
      8 S          59.8951   86.2068    7.7170 S.2     1  UNL1       -0.0695
      9 C          63.4012   89.4462   12.6292 C.ar    1  UNL1        0.0612
     10 C          63.9416   88.7388   13.8364 C.ar    1  UNL1        0.0114
     11 C          64.5690   89.5258   14.9485 C.ar    1  UNL1        0.0213
     12 C          64.6560   91.0203   14.8535 C.ar    1  UNL1        0.0989
     13 N          64.1156   91.7277   13.6462 N.ar    1  UNL1       -0.2417
     14 C          63.4881   90.9407   12.5341 C.ar    1  UNL1        0.1071
@<TRIPOS>BOND
     1     3     4    1
     2     4     5   ar
     3     5     6   ar
     4     6     1    1
     5     1     2    3
     6     2     9    1
     7     9    10   ar
     8    10    11   ar
     9    11    12   ar
    10    12    13   ar
    11    13    14   ar
    12     6     7   ar
    13     7     8   ar
    14     8     4   ar
    15    14     9   ar
@<TRIPOS>MOLECULE
*****
 14 15 0 0 0
SMALL
GASTEIGER

@<TRIPOS>ATOM
      1 C          62.8990   89.8556   11.4401 C.1     1  UNL1       -0.0399
      2 C          62.0021   89.1399   10.4741 C.1     1  UNL1       -0.0567
      3 C          66.3460   93.2878   13.4942 C.3     1  UNL1        0.0594
      4 C          65.3803   92.1491   13.3503 C.ar    1  UNL1        0.0893
      5 N          64.6535   91.7625   12.0963 N.ar    1  UNL1       -0.2344
      6 C          63.7959   90.5715   12.4062 C.ar    1  UNL1        0.1295
      7 C          63.9927   90.2219   13.8515 C.ar    1  UNL1        0.0641
      8 S          64.9719   91.1969   14.4350 S.2     1  UNL1       -0.0695
      9 C          61.1052   88.4241    9.5080 C.ar    1  UNL1        0.0612
     10 C          61.1491   86.9279    9.4113 C.ar    1  UNL1        0.0114
     11 C          60.2522   86.2121    8.4453 C.ar    1  UNL1        0.0213
     12 C          59.3114   86.9926    7.5759 C.ar    1  UNL1        0.0989
     13 N          59.2675   88.4888    7.6726 N.ar    1  UNL1       -0.2417
     14 C          60.1644   89.2045    8.6387 C.ar    1  UNL1        0.1071
@<TRIPOS>BOND
     1     3     4    1
     2     4     5   ar
     3     5     6   ar
     4     6     1    1
     5     1     2    3
     6     2     9    1
     7     9    10   ar
     8    10    11   ar
     9    11    12   ar
    10    12    13   ar
    11    13    14   ar
    12     6     7   ar
    13     7     8   ar
    14     8     4   ar
    15    14     9   ar
@<TRIPOS>MOLECULE
*****
 14 15 0 0 0
SMALL
GASTEIGER

@<TRIPOS>ATOM
      1 C          62.8732   89.7597   11.3520 C.1     1  UNL1       -0.0399
      2 C          63.7786   90.6595   12.1397 C.1     1  UNL1       -0.0567
      3 C          59.3594   88.0204    7.8152 C.3     1  UNL1        0.0594
      4 C          60.3526   88.0605    8.9385 C.ar    1  UNL1        0.0893
      5 N          61.0767   89.2779    9.4322 N.ar    1  UNL1       -0.2344
      6 C          61.9677   88.8599   10.5642 C.ar    1  UNL1        0.1295
      7 C          61.7944   87.3843   10.7701 C.ar    1  UNL1        0.0641
      8 S          60.7962   86.8901    9.7654 S.2     1  UNL1       -0.0695
      9 C          64.6840   91.5594   12.9275 C.ar    1  UNL1        0.0612
     10 C          65.4641   92.6346   12.2308 C.ar    1  UNL1        0.0114
     11 C          66.3695   93.5344   13.0186 C.ar    1  UNL1        0.0213
     12 C          66.4948   93.3589   14.5030 C.ar    1  UNL1        0.0989
     13 N          65.7148   92.2837   15.1997 N.ar    1  UNL1       -0.2417
     14 C          64.8094   91.3839   14.4119 C.ar    1  UNL1        0.1071
@<TRIPOS>BOND
     1     3     4    1
     2     4     5   ar
     3     5     6   ar
     4     6     1    1
     5     1     2    3
     6     2     9    1
     7     9    10   ar
     8    10    11   ar
     9    11    12   ar
    10    12    13   ar
    11    13    14   ar
    12     6     7   ar
    13     7     8   ar
    14     8     4   ar
    15    14     9   ar
@<TRIPOS>MOLECULE
*****
 14 15 0 0 0
SMALL
GASTEIGER

@<TRIPOS>ATOM
      1 C          62.6875   85.9486   12.0095 C.1     1  UNL1       -0.0399
      2 C          62.6420   84.4738   12.2791 C.1     1  UNL1       -0.0567
      3 C          63.6788   91.1128   12.4883 C.3     1  UNL1        0.0594
      4 C          63.1887   89.7973   11.9601 C.ar    1  UNL1        0.0893
      5 N          63.3837   88.4588   12.6088 N.ar    1  UNL1       -0.2344
      6 C          62.7330   87.4235   11.7400 C.ar    1  UNL1        0.1295
      7 C          62.1359   88.1220   10.5544 C.ar    1  UNL1        0.0641
      8 S          62.4175   89.5890   10.6904 S.2     1  UNL1       -0.0695
      9 C          62.5964   82.9988   12.5486 C.ar    1  UNL1        0.0612
     10 C          62.1994   82.4962   13.9050 C.ar    1  UNL1        0.0114
     11 C          62.1539   81.0213   14.1744 C.ar    1  UNL1        0.0213
     12 C          62.5054   80.0491   13.0876 C.ar    1  UNL1        0.0989
     13 N          62.9024   80.5517   11.7313 N.ar    1  UNL1       -0.2417
     14 C          62.9479   82.0266   11.4618 C.ar    1  UNL1        0.1071
@<TRIPOS>BOND
     1     3     4    1
     2     4     5   ar
     3     5     6   ar
     4     6     1    1
     5     1     2    3
     6     2     9    1
     7     9    10   ar
     8    10    11   ar
     9    11    12   ar
    10    12    13   ar
    11    13    14   ar
    12     6     7   ar
    13     7     8   ar
    14     8     4   ar
    15    14     9   ar
