@<TRIPOS>MOLECULE
*****
 26 30 0 0 0
SMALL
GASTEIGER

@<TRIPOS>ATOM
      1 C          63.5387   85.8164   13.3272 C.ar    1  UNL1        0.0152
      2 C          64.2167   86.2258   14.6011 C.ar    1  UNL1        0.0043
      3 C          64.4268   87.6796   14.9051 C.ar    1  UNL1        0.0369
      4 C          63.9590   88.7239   13.9352 C.ar    1  UNL1        0.1384
      5 C          63.2810   88.3144   12.6614 C.ar    1  UNL1        0.0369
      6 C          63.0708   86.8607   12.3574 C.ar    1  UNL1        0.0043
      7 O          62.6981   80.0013   12.1112 O.2     1  UNL1       -0.2734
      8 C          62.9082   81.4551   12.4152 C.2     1  UNL1        0.2410
      9 N          62.4654   82.0173   13.7334 N.am    1  UNL1       -0.2062
     10 N          62.6755   83.4711   14.0374 N.2     1  UNL1       -0.1836
     11 C          63.3285   84.3626   13.0232 C.2     1  UNL1        0.0763
     12 C          63.7714   83.8004   11.7049 C.3     1  UNL1        0.0509
     13 C          64.2143   83.2382   10.3867 C.3     1  UNL1        0.0160
     14 C          63.5613   82.3467   11.4009 C.3     1  UNL1        0.0841
     15 H          62.0368   81.4322   14.3991 H       1  UNL1        0.1772
     16 O          64.1691   90.1777   14.2392 O.3     1  UNL1       -0.4791
     17 C          64.8437   91.0641   13.2345 C.3     1  UNL1        0.1687
     18 C          66.2122   91.6101   13.5153 C.3     1  UNL1        0.0609
     19 C          66.8868   92.4965   12.5107 C.3     1  UNL1        0.0758
     20 N          66.1928   92.8369   11.2252 N.3     1  UNL1       -0.2737
     21 C          64.8241   92.2908   10.9444 C.3     1  UNL1        0.0758
     22 C          64.1496   91.4045   11.9490 C.3     1  UNL1        0.0609
     23 C          66.8672   93.7233   10.2205 C.3     1  UNL1        0.0575
     24 C          67.9019   93.5214    9.1534 C.3     1  UNL1        0.0160
     25 C          67.8211   94.9768    8.7997 C.3     1  UNL1        0.0028
     26 C          66.7865   95.1787    9.8669 C.3     1  UNL1        0.0160
@<TRIPOS>BOND
     1     7     8    2
     2     8     9   am
     3     9    10    1
     4    10    11    2
     5    11     1    1
     6     1     2   ar
     7     2     3   ar
     8     3     4   ar
     9     4    16    1
    10    16    17    1
    11    17    18    1
    12    18    19    1
    13    19    20    1
    14    20    23    1
    15    23    24    1
    16    24    25    1
    17    25    26    1
    18    20    21    1
    19    21    22    1
    20     4     5   ar
    21     5     6   ar
    22    11    12    1
    23    12    13    1
    24    14    13    1
    25    14     8    1
    26     6     1   ar
    27    14    12    1
    28    22    17    1
    29    26    23    1
    30     9    15    1
@<TRIPOS>MOLECULE
*****
 26 30 0 0 0
SMALL
GASTEIGER

@<TRIPOS>ATOM
      1 C          65.8478   92.6480   11.9833 C.ar    1  UNL1        0.0152
      2 C          66.6923   92.2745   13.1654 C.ar    1  UNL1        0.0043
      3 C          66.2164   91.2247   14.1254 C.ar    1  UNL1        0.0369
      4 C          64.8960   90.5484   13.9032 C.ar    1  UNL1        0.1384
      5 C          64.0516   90.9219   12.7211 C.ar    1  UNL1        0.0369
      6 C          64.5275   91.9717   11.7612 C.ar    1  UNL1        0.0043
      7 O          67.7513   96.8470    8.1434 O.2     1  UNL1       -0.2734
      8 C          67.2754   95.7973    9.1034 C.2     1  UNL1        0.2410
      9 N          66.2946   96.1551   10.1804 N.am    1  UNL1       -0.2062
     10 N          65.8187   95.1053   11.1403 N.2     1  UNL1       -0.1836
     11 C          66.3237   93.6977   11.0233 C.2     1  UNL1        0.0763
     12 C          67.3045   93.3399    9.9463 C.3     1  UNL1        0.0509
     13 C          68.2853   92.9821    8.8693 C.3     1  UNL1        0.0160
     14 C          67.7804   94.3896    8.9863 C.3     1  UNL1        0.0841
     15 H          65.9632   97.0789   10.2572 H       1  UNL1        0.1772
     16 O          64.4202   89.4986   14.8632 O.3     1  UNL1       -0.4791
     17 C          64.0812   88.1250   14.3649 C.3     1  UNL1        0.1687
     18 C          64.3395   86.9280   15.2312 C.3     1  UNL1        0.0609
     19 C          64.0006   85.5543   14.7329 C.3     1  UNL1        0.0758
     20 N          63.4034   85.3777   13.3683 N.3     1  UNL1       -0.2737
     21 C          63.1450   86.5748   12.5020 C.3     1  UNL1        0.0758
     22 C          63.4840   87.9483   13.0003 C.3     1  UNL1        0.0609
     23 C          63.0644   84.0041   12.8700 C.3     1  UNL1        0.0575
     24 C          62.6623   82.7110   13.5152 C.3     1  UNL1        0.0160
     25 C          62.5851   82.0615   12.1653 C.3     1  UNL1        0.0028
     26 C          62.9872   83.3546   11.5201 C.3     1  UNL1        0.0160
@<TRIPOS>BOND
     1     7     8    2
     2     8     9   am
     3     9    10    1
     4    10    11    2
     5    11     1    1
     6     1     2   ar
     7     2     3   ar
     8     3     4   ar
     9     4    16    1
    10    16    17    1
    11    17    18    1
    12    18    19    1
    13    19    20    1
    14    20    23    1
    15    23    24    1
    16    24    25    1
    17    25    26    1
    18    20    21    1
    19    21    22    1
    20     4     5   ar
    21     5     6   ar
    22    11    12    1
    23    12    13    1
    24    14    13    1
    25    14     8    1
    26     6     1   ar
    27    14    12    1
    28    22    17    1
    29    26    23    1
    30     9    15    1
@<TRIPOS>MOLECULE
*****
 26 30 0 0 0
SMALL
GASTEIGER

@<TRIPOS>ATOM
      1 C          63.4951   85.6775   13.0137 C.ar    1  UNL1        0.0152
      2 C          64.1890   86.0434   14.2923 C.ar    1  UNL1        0.0043
      3 C          64.3658   87.4860   14.6634 C.ar    1  UNL1        0.0369
      4 C          63.8487   88.5627   13.7559 C.ar    1  UNL1        0.1384
      5 C          63.1548   88.1968   12.4774 C.ar    1  UNL1        0.0369
      6 C          62.9780   86.7542   12.1063 C.ar    1  UNL1        0.0043
      7 O          62.7880   79.9073   11.5291 O.2     1  UNL1       -0.2734
      8 C          62.9647   81.3498   11.9003 C.2     1  UNL1        0.2410
      9 N          63.5641   82.3096   10.9156 N.am    1  UNL1       -0.2062
     10 N          63.7409   83.7521   11.2867 N.2     1  UNL1       -0.1836
     11 C          63.3183   84.2350   12.6425 C.2     1  UNL1        0.0763
     12 C          62.7189   83.2752   13.6273 C.3     1  UNL1        0.0509
     13 C          62.1195   82.3155   14.6120 C.3     1  UNL1        0.0160
     14 C          62.5421   81.8326   13.2562 C.3     1  UNL1        0.0841
     15 H          63.8415   81.9927   10.0257 H       1  UNL1        0.1772
     16 O          64.0255   90.0052   14.1271 O.3     1  UNL1       -0.4791
     17 C          64.7124   90.9445   13.1804 C.3     1  UNL1        0.1687
     18 C          66.0401   91.5392   13.5456 C.3     1  UNL1        0.0609
     19 C          66.7271   92.4784   12.5989 C.3     1  UNL1        0.0758
     20 N          66.0862   92.8228   11.2872 N.3     1  UNL1       -0.2737
     21 C          64.7584   92.2280   10.9221 C.3     1  UNL1        0.0758
     22 C          64.0715   91.2889   11.8687 C.3     1  UNL1        0.0609
     23 C          66.7731   93.7620   10.3405 C.3     1  UNL1        0.0575
     24 C          66.6649   95.2264   10.0342 C.3     1  UNL1        0.0160
     25 C          67.7445   95.0902    9.0018 C.3     1  UNL1        0.0028
     26 C          67.8527   93.6258    9.3081 C.3     1  UNL1        0.0160
@<TRIPOS>BOND
     1     7     8    2
     2     8     9   am
     3     9    10    1
     4    10    11    2
     5    11     1    1
     6     1     2   ar
     7     2     3   ar
     8     3     4   ar
     9     4    16    1
    10    16    17    1
    11    17    18    1
    12    18    19    1
    13    19    20    1
    14    20    23    1
    15    23    24    1
    16    24    25    1
    17    25    26    1
    18    20    21    1
    19    21    22    1
    20     4     5   ar
    21     5     6   ar
    22    11    12    1
    23    12    13    1
    24    14    13    1
    25    14     8    1
    26     6     1   ar
    27    14    12    1
    28    22    17    1
    29    26    23    1
    30     9    15    1
@<TRIPOS>MOLECULE
*****
 26 30 0 0 0
SMALL
GASTEIGER

@<TRIPOS>ATOM
      1 C          63.5120   85.4761   14.3141 C.ar    1  UNL1        0.0152
      2 C          63.6564   85.9458   15.7314 C.ar    1  UNL1        0.0043
      3 C          63.9184   87.3947   16.0184 C.ar    1  UNL1        0.0369
      4 C          64.0358   88.3738   14.8880 C.ar    1  UNL1        0.1384
      5 C          63.8914   87.9041   13.4708 C.ar    1  UNL1        0.0369
      6 C          63.6295   86.4553   13.1839 C.ar    1  UNL1        0.0043
      7 O          62.4643   79.6809   13.1664 O.2     1  UNL1       -0.2734
      8 C          62.7262   81.1297   13.4533 C.2     1  UNL1        0.2410
      9 N          62.1827   81.7570   14.7027 N.am    1  UNL1       -0.2062
     10 N          62.4446   83.2058   14.9897 N.2     1  UNL1       -0.1836
     11 C          63.2501   84.0273   14.0272 C.2     1  UNL1        0.0763
     12 C          63.7936   83.4000   12.7777 C.3     1  UNL1        0.0509
     13 C          64.3371   82.7727   11.5283 C.3     1  UNL1        0.0160
     14 C          63.5317   81.9512   12.4908 C.3     1  UNL1        0.0841
     15 H          61.6540   81.2179   15.3344 H       1  UNL1        0.1772
     16 O          64.2978   89.8226   15.1750 O.3     1  UNL1       -0.4791
     17 C          64.8850   90.7034   14.1122 C.3     1  UNL1        0.1687
     18 C          66.2632   91.2698   14.2845 C.3     1  UNL1        0.0609
     19 C          66.8503   92.1507   13.2217 C.3     1  UNL1        0.0758
     20 N          66.0593   92.4650   11.9867 N.3     1  UNL1       -0.2737
     21 C          64.6810   91.8985   11.8144 C.3     1  UNL1        0.0758
     22 C          64.0939   91.0178   12.8771 C.3     1  UNL1        0.0609
     23 C          66.6464   93.3458   10.9239 C.3     1  UNL1        0.0575
     24 C          67.5392   93.1268    9.7386 C.3     1  UNL1        0.0160
     25 C          67.4767   94.5914    9.4209 C.3     1  UNL1        0.0028
     26 C          66.5839   94.8104   10.6062 C.3     1  UNL1        0.0160
@<TRIPOS>BOND
     1     7     8    2
     2     8     9   am
     3     9    10    1
     4    10    11    2
     5    11     1    1
     6     1     2   ar
     7     2     3   ar
     8     3     4   ar
     9     4    16    1
    10    16    17    1
    11    17    18    1
    12    18    19    1
    13    19    20    1
    14    20    23    1
    15    23    24    1
    16    24    25    1
    17    25    26    1
    18    20    21    1
    19    21    22    1
    20     4     5   ar
    21     5     6   ar
    22    11    12    1
    23    12    13    1
    24    14    13    1
    25    14     8    1
    26     6     1   ar
    27    14    12    1
    28    22    17    1
    29    26    23    1
    30     9    15    1
@<TRIPOS>MOLECULE
*****
 26 30 0 0 0
SMALL
GASTEIGER

@<TRIPOS>ATOM
      1 C          64.6539   91.2439   13.8637 C.ar    1  UNL1        0.0152
      2 C          63.8156   90.3476   14.7262 C.ar    1  UNL1        0.0043
      3 C          62.6039   89.6742   14.1531 C.ar    1  UNL1        0.0369
      4 C          62.2306   89.8973   12.7174 C.ar    1  UNL1        0.1384
      5 C          63.0689   90.7936   11.8550 C.ar    1  UNL1        0.0369
      6 C          64.2806   91.4669   12.4282 C.ar    1  UNL1        0.0043
      7 O          69.5005   93.9373   16.1564 O.2     1  UNL1       -0.2734
      8 C          68.2889   93.2640   15.5832 C.2     1  UNL1        0.2410
      9 N          66.9725   93.3547   16.2966 N.am    1  UNL1       -0.2062
     10 N          65.7609   92.6814   15.7234 N.2     1  UNL1       -0.1836
     11 C          65.8656   91.9173   14.4369 C.2     1  UNL1        0.0763
     12 C          67.1820   91.8265   13.7235 C.3     1  UNL1        0.0509
     13 C          68.4983   91.7357   13.0101 C.3     1  UNL1        0.0160
     14 C          68.3936   92.4998   14.2966 C.3     1  UNL1        0.0841
     15 H          66.9038   93.8562   17.1410 H       1  UNL1        0.1772
     16 O          61.0189   89.2239   12.1443 O.3     1  UNL1       -0.4791
     17 C          61.1618   88.2831   10.9847 C.3     1  UNL1        0.1687
     18 C          62.1535   87.1596   11.0482 C.3     1  UNL1        0.0609
     19 C          62.2964   86.2188    9.8886 C.3     1  UNL1        0.0758
     20 N          61.4475   86.4016    8.6656 N.3     1  UNL1       -0.2737
     21 C          60.4557   87.5252    8.6021 C.3     1  UNL1        0.0758
     22 C          60.3129   88.4659    9.7616 C.3     1  UNL1        0.0609
     23 C          61.5903   85.4609    7.5060 C.3     1  UNL1        0.0575
     24 C          60.6450   84.8433    6.5186 C.3     1  UNL1        0.0160
     25 C          61.7923   84.1304    5.8661 C.3     1  UNL1        0.0028
     26 C          62.7376   84.7481    6.8536 C.3     1  UNL1        0.0160
@<TRIPOS>BOND
     1     7     8    2
     2     8     9   am
     3     9    10    1
     4    10    11    2
     5    11     1    1
     6     1     2   ar
     7     2     3   ar
     8     3     4   ar
     9     4    16    1
    10    16    17    1
    11    17    18    1
    12    18    19    1
    13    19    20    1
    14    20    23    1
    15    23    24    1
    16    24    25    1
    17    25    26    1
    18    20    21    1
    19    21    22    1
    20     4     5   ar
    21     5     6   ar
    22    11    12    1
    23    12    13    1
    24    14    13    1
    25    14     8    1
    26     6     1   ar
    27    14    12    1
    28    22    17    1
    29    26    23    1
    30     9    15    1
@<TRIPOS>MOLECULE
*****
 26 30 0 0 0
SMALL
GASTEIGER

@<TRIPOS>ATOM
      1 C          64.6931   90.8205   14.3922 C.ar    1  UNL1        0.0152
      2 C          64.7853   89.4285   13.8410 C.ar    1  UNL1        0.0043
      3 C          64.2595   88.2705   14.6364 C.ar    1  UNL1        0.0369
      4 C          63.6415   88.5046   15.9831 C.ar    1  UNL1        0.1384
      5 C          63.5493   89.8966   16.5342 C.ar    1  UNL1        0.0369
      6 C          64.0751   91.0546   15.7388 C.ar    1  UNL1        0.0043
      7 O          66.7961   95.4523   11.2105 O.2     1  UNL1       -0.2734
      8 C          66.2704   94.2944   12.0059 C.2     1  UNL1        0.2410
      9 N          66.5547   94.2035   13.4759 N.am    1  UNL1       -0.2062
     10 N          66.0290   93.0455   14.2713 N.2     1  UNL1       -0.1836
     11 C          65.2188   91.9785   13.5968 C.2     1  UNL1        0.0763
     12 C          64.9344   92.0693   12.1267 C.3     1  UNL1        0.0509
     13 C          64.6501   92.1602   10.6568 C.3     1  UNL1        0.0160
     14 C          65.4602   93.2273   11.3313 C.3     1  UNL1        0.0841
     15 H          67.0865   94.9038   13.9186 H       1  UNL1        0.1772
     16 O          63.1158   87.3467   16.7785 O.3     1  UNL1       -0.4791
     17 C          63.0058   85.9908   16.1463 C.3     1  UNL1        0.1687
     18 C          64.2439   85.2596   15.7195 C.3     1  UNL1        0.0609
     19 C          64.1339   83.9038   15.0873 C.3     1  UNL1        0.0758
     20 N          62.7857   83.2791   14.8820 N.3     1  UNL1       -0.2737
     21 C          61.5475   84.0104   15.3089 C.3     1  UNL1        0.0758
     22 C          61.6575   85.3662   15.9411 C.3     1  UNL1        0.0609
     23 C          62.6757   81.9233   14.2499 C.3     1  UNL1        0.0575
     24 C          61.5655   80.9358   14.0444 C.3     1  UNL1        0.0160
     25 C          62.5201   80.0059   13.3558 C.3     1  UNL1        0.0028
     26 C          63.6303   80.9935   13.5613 C.3     1  UNL1        0.0160
@<TRIPOS>BOND
     1     7     8    2
     2     8     9   am
     3     9    10    1
     4    10    11    2
     5    11     1    1
     6     1     2   ar
     7     2     3   ar
     8     3     4   ar
     9     4    16    1
    10    16    17    1
    11    17    18    1
    12    18    19    1
    13    19    20    1
    14    20    23    1
    15    23    24    1
    16    24    25    1
    17    25    26    1
    18    20    21    1
    19    21    22    1
    20     4     5   ar
    21     5     6   ar
    22    11    12    1
    23    12    13    1
    24    14    13    1
    25    14     8    1
    26     6     1   ar
    27    14    12    1
    28    22    17    1
    29    26    23    1
    30     9    15    1
@<TRIPOS>MOLECULE
*****
 26 30 0 0 0
SMALL
GASTEIGER

@<TRIPOS>ATOM
      1 C          62.7970   85.2131   12.0046 C.ar    1  UNL1        0.0152
      2 C          63.5380   85.9472   13.0828 C.ar    1  UNL1        0.0043
      3 C          63.5413   87.4470   13.1028 C.ar    1  UNL1        0.0369
      4 C          62.8036   88.2129   12.0448 C.ar    1  UNL1        0.1384
      5 C          62.0628   87.4789   10.9667 C.ar    1  UNL1        0.0369
      6 C          62.0595   85.9790   10.9466 C.ar    1  UNL1        0.0043
      7 O          62.7839   79.2137   11.9243 O.2     1  UNL1       -0.2734
      8 C          62.7872   80.7136   11.9444 C.2     1  UNL1        0.2410
      9 N          63.1750   81.4792   10.7143 N.am    1  UNL1       -0.2062
     10 N          63.1783   82.9791   10.7343 N.2     1  UNL1       -0.1836
     11 C          62.7937   83.7133   11.9845 C.2     1  UNL1        0.0763
     12 C          62.4058   82.9476   13.2147 C.3     1  UNL1        0.0509
     13 C          62.0180   82.1819   14.4448 C.3     1  UNL1        0.0160
     14 C          62.4025   81.4477   13.1947 C.3     1  UNL1        0.0841
     15 H          63.4275   80.9974    9.8937 H       1  UNL1        0.1772
     16 O          62.8069   89.7127   12.0648 O.3     1  UNL1       -0.4791
     17 C          63.8889   90.4506   12.7962 C.3     1  UNL1        0.1687
     18 C          64.2389   90.0672   14.2035 C.3     1  UNL1        0.0609
     19 C          65.3209   90.8051   14.9349 C.3     1  UNL1        0.0758
     20 N          66.0528   91.9264   14.2590 N.3     1  UNL1       -0.2737
     21 C          65.7028   92.3099   12.8517 C.3     1  UNL1        0.0758
     22 C          64.6208   91.5720   12.1203 C.3     1  UNL1        0.0609
     23 C          67.1348   92.6643   14.9903 C.3     1  UNL1        0.0575
     24 C          67.6757   94.0629   14.9544 C.3     1  UNL1        0.0160
     25 C          68.6649   93.7079   16.0246 C.3     1  UNL1        0.0028
     26 C          68.1239   92.3093   16.0606 C.3     1  UNL1        0.0160
@<TRIPOS>BOND
     1     7     8    2
     2     8     9   am
     3     9    10    1
     4    10    11    2
     5    11     1    1
     6     1     2   ar
     7     2     3   ar
     8     3     4   ar
     9     4    16    1
    10    16    17    1
    11    17    18    1
    12    18    19    1
    13    19    20    1
    14    20    23    1
    15    23    24    1
    16    24    25    1
    17    25    26    1
    18    20    21    1
    19    21    22    1
    20     4     5   ar
    21     5     6   ar
    22    11    12    1
    23    12    13    1
    24    14    13    1
    25    14     8    1
    26     6     1   ar
    27    14    12    1
    28    22    17    1
    29    26    23    1
    30     9    15    1
@<TRIPOS>MOLECULE
*****
 26 30 0 0 0
SMALL
GASTEIGER

@<TRIPOS>ATOM
      1 C          60.9034   86.9708    9.3838 C.ar    1  UNL1        0.0152
      2 C          60.0440   86.3742    8.3088 C.ar    1  UNL1        0.0043
      3 C          59.2104   87.2638    7.4349 C.ar    1  UNL1        0.0369
      4 C          59.2363   88.7501    7.6359 C.ar    1  UNL1        0.1384
      5 C          60.0956   89.3467    8.7109 C.ar    1  UNL1        0.0369
      6 C          60.9292   88.4571    9.5848 C.ar    1  UNL1        0.0043
      7 O          64.2377   83.4124   12.8795 O.2     1  UNL1       -0.2734
      8 C          63.4041   84.3020   12.0056 C.2     1  UNL1        0.2410
      9 N          62.4469   85.2772   12.6241 N.am    1  UNL1       -0.2062
     10 N          61.6133   86.1668   11.7501 N.2     1  UNL1       -0.1836
     11 C          61.7370   86.0812   10.2577 C.2     1  UNL1        0.0763
     12 C          62.6943   85.1060    9.6392 C.3     1  UNL1        0.0509
     13 C          63.6515   84.1308    9.0207 C.3     1  UNL1        0.0160
     14 C          63.5279   84.2164   10.5131 C.3     1  UNL1        0.0841
     15 H          62.3657   85.3334   13.6036 H       1  UNL1        0.1772
     16 O          58.4027   89.6397    6.7620 O.3     1  UNL1       -0.4791
     17 C          59.0598   90.4998    5.7235 C.3     1  UNL1        0.1687
     18 C          60.5346   90.3824    5.4761 C.3     1  UNL1        0.0609
     19 C          61.1917   91.2425    4.4376 C.3     1  UNL1        0.0758
     20 N          60.3740   92.2200    3.6465 N.3     1  UNL1       -0.2737
     21 C          58.8992   92.3374    3.8939 C.3     1  UNL1        0.0758
     22 C          58.2421   91.4773    4.9324 C.3     1  UNL1        0.0609
     23 C          61.0311   93.0801    2.6080 C.3     1  UNL1        0.0575
     24 C          60.6370   94.3103    1.8456 C.3     1  UNL1        0.0160
     25 C          61.9603   94.2965    1.1394 C.3     1  UNL1        0.0028
     26 C          62.3543   93.0663    1.9018 C.3     1  UNL1        0.0160
@<TRIPOS>BOND
     1     7     8    2
     2     8     9   am
     3     9    10    1
     4    10    11    2
     5    11     1    1
     6     1     2   ar
     7     2     3   ar
     8     3     4   ar
     9     4    16    1
    10    16    17    1
    11    17    18    1
    12    18    19    1
    13    19    20    1
    14    20    23    1
    15    23    24    1
    16    24    25    1
    17    25    26    1
    18    20    21    1
    19    21    22    1
    20     4     5   ar
    21     5     6   ar
    22    11    12    1
    23    12    13    1
    24    14    13    1
    25    14     8    1
    26     6     1   ar
    27    14    12    1
    28    22    17    1
    29    26    23    1
    30     9    15    1
@<TRIPOS>MOLECULE
*****
 26 30 0 0 0
SMALL
GASTEIGER

@<TRIPOS>ATOM
      1 C          60.1001   92.1584    3.7752 C.ar    1  UNL1        0.0152
      2 C          61.0037   91.2084    4.5041 C.ar    1  UNL1        0.0043
      3 C          60.4451   90.3065    5.5646 C.ar    1  UNL1        0.0369
      4 C          58.9829   90.3546    5.8962 C.ar    1  UNL1        0.1384
      5 C          58.0794   91.3045    5.1673 C.ar    1  UNL1        0.0369
      6 C          58.6380   92.2064    4.1068 C.ar    1  UNL1        0.0043
      7 O          62.3344   95.7659   -0.4667 O.2     1  UNL1       -0.2734
      8 C          61.7758   94.8640    0.5938 C.2     1  UNL1        0.2410
      9 N          60.3673   95.0532    1.0737 N.am    1  UNL1       -0.2062
     10 N          59.8087   94.1513    2.1342 N.2     1  UNL1       -0.1836
     11 C          60.6586   93.0603    2.7148 C.2     1  UNL1        0.0763
     12 C          62.0672   92.8710    2.2349 C.3     1  UNL1        0.0509
     13 C          63.4757   92.6818    1.7550 C.3     1  UNL1        0.0160
     14 C          62.6258   93.7729    1.1744 C.3     1  UNL1        0.0841
     15 H          59.8094   95.7693    0.6926 H       1  UNL1        0.1772
     16 O          58.4244   89.4527    6.9567 O.3     1  UNL1       -0.4791
     17 C          59.3265   88.4971    7.6800 C.3     1  UNL1        0.1687
     18 C          59.3657   87.0526    7.2779 C.3     1  UNL1        0.0609
     19 C          60.2678   86.0970    8.0013 C.3     1  UNL1        0.0758
     20 N          61.1307   86.5860    9.1266 N.3     1  UNL1       -0.2737
     21 C          61.0914   88.0306    9.5286 C.3     1  UNL1        0.0758
     22 C          60.1893   88.9862    8.8053 C.3     1  UNL1        0.0609
     23 C          62.0327   85.6305    9.8499 C.3     1  UNL1        0.0575
     24 C          63.1390   84.7024    9.4438 C.3     1  UNL1        0.0160
     25 C          63.3085   84.2791   10.8728 C.3     1  UNL1        0.0028
     26 C          62.2022   85.2072   11.2789 C.3     1  UNL1        0.0160
@<TRIPOS>BOND
     1     7     8    2
     2     8     9   am
     3     9    10    1
     4    10    11    2
     5    11     1    1
     6     1     2   ar
     7     2     3   ar
     8     3     4   ar
     9     4    16    1
    10    16    17    1
    11    17    18    1
    12    18    19    1
    13    19    20    1
    14    20    23    1
    15    23    24    1
    16    24    25    1
    17    25    26    1
    18    20    21    1
    19    21    22    1
    20     4     5   ar
    21     5     6   ar
    22    11    12    1
    23    12    13    1
    24    14    13    1
    25    14     8    1
    26     6     1   ar
    27    14    12    1
    28    22    17    1
    29    26    23    1
    30     9    15    1
