@<TRIPOS>MOLECULE
*****
 23 27 0 0 0
SMALL
GASTEIGER

@<TRIPOS>ATOM
      1 C          62.8247   86.2889   12.0395 C.3     1  UNL1        0.1123
      2 C          62.0944   87.0753   10.9915 C.ar    1  UNL1       -0.0002
      3 C          61.2720   86.6523    9.8106 C.ar    1  UNL1       -0.0024
      4 C          60.6511   87.6870    8.9197 C.ar    1  UNL1       -0.0003
      5 C          60.8527   89.1449    9.2097 C.ar    1  UNL1        0.0000
      6 C          61.6752   89.5679   10.3906 C.ar    1  UNL1        0.0012
      7 C          62.2960   88.5331   11.2815 C.ar    1  UNL1        0.0152
      8 C          63.1509   88.6477   12.5087 C.ar    1  UNL1        0.0804
      9 C          63.8038   89.6195   13.4465 C.ar    1  UNL1        0.1177
     10 N          64.5340   88.8331   14.4945 N.ar    1  UNL1       -0.2223
     11 C          64.3324   87.3752   14.2045 C.ar    1  UNL1        0.1788
     12 N          63.4776   87.2607   12.9772 N.ar    1  UNL1       -0.3069
     13 O          62.0761   84.9120   14.5977 O.3     1  UNL1       -0.3769
     14 C          62.5161   84.1048   13.4124 C.3     1  UNL1        0.1707
     15 C          62.5819   82.6092   13.5062 C.ar    1  UNL1        0.1703
     16 N          62.2765   81.6594   14.6263 N.ar    1  UNL1       -0.1307
     17 N          62.5278   80.2652   14.1333 N.ar    1  UNL1       -0.1258
     18 C          62.9885   80.3534   12.7086 C.ar    1  UNL1        0.2025
     19 N          63.0219   81.8020   12.3210 N.ar    1  UNL1       -0.2944
     20 C          63.3962   82.4904   11.0419 C.3     1  UNL1        0.1090
     21 C          63.3304   83.9861   10.9482 C.3     1  UNL1        0.0297
     22 C          62.8904   84.7933   12.1333 C.3     1  UNL1        0.0612
     23 H          61.8727   84.3172   15.3364 H       1  UNL1        0.2109
@<TRIPOS>BOND
     1    14    13    1
     2    14    15    1
     3    15    16   ar
     4    16    17   ar
     5    17    18   ar
     6    18    19   ar
     7    19    20    1
     8    20    21    1
     9    22    21    1
    10    22     1    1
    11     1     2    1
    12     2     3   ar
    13     3     4   ar
    14     4     5   ar
    15     5     6   ar
    16     6     7   ar
    17     7     8    1
    18     8     9   ar
    19     9    10   ar
    20    10    11   ar
    21    11    12   ar
    22    22    14    1
    23     1    12    1
    24    19    15   ar
    25     7     2   ar
    26    12     8   ar
    27    13    23    1
@<TRIPOS>MOLECULE
*****
 23 27 0 0 0
SMALL
GASTEIGER

@<TRIPOS>ATOM
      1 C          62.2530   86.5439   10.9124 C.3     1  UNL1        0.1123
      2 C          61.3028   86.8996    9.8076 C.ar    1  UNL1       -0.0002
      3 C          60.5810   86.0601    8.7955 C.ar    1  UNL1       -0.0024
      4 C          59.6757   86.7094    7.7911 C.ar    1  UNL1       -0.0003
      5 C          59.4923   88.1981    7.7988 C.ar    1  UNL1        0.0000
      6 C          60.2141   89.0376    8.8108 C.ar    1  UNL1        0.0012
      7 C          61.1193   88.3883    9.8152 C.ar    1  UNL1        0.0152
      8 C          61.9561   88.9527   10.9249 C.ar    1  UNL1        0.0804
      9 C          62.3598   90.2217   11.6154 C.ar    1  UNL1        0.1177
     10 N          63.3100   89.8660   12.7203 N.ar    1  UNL1       -0.2223
     11 C          63.4935   88.3773   12.7126 C.ar    1  UNL1        0.1788
     12 N          62.6567   87.8128   11.6030 N.ar    1  UNL1       -0.3069
     13 O          61.9206   85.5180   13.7120 O.3     1  UNL1       -0.3769
     14 C          62.5516   84.6490   12.6647 C.3     1  UNL1        0.1707
     15 C          63.0164   83.2671   13.0172 C.ar    1  UNL1        0.1703
     16 N          62.9854   82.4951   14.3029 N.ar    1  UNL1       -0.1307
     17 N          63.5971   81.1491   14.0503 N.ar    1  UNL1       -0.1258
     18 C          64.0062   81.0891   12.6084 C.ar    1  UNL1        0.2025
     19 N          63.6473   82.3981   11.9699 N.ar    1  UNL1       -0.2944
     20 C          63.8134   82.9111   10.5702 C.3     1  UNL1        0.1090
     21 C          63.3487   84.2930   10.2177 C.3     1  UNL1        0.0297
     22 C          62.7177   85.1620   11.2649 C.3     1  UNL1        0.0612
     23 H          61.8898   85.0383   14.5545 H       1  UNL1        0.2109
@<TRIPOS>BOND
     1    14    13    1
     2    14    15    1
     3    15    16   ar
     4    16    17   ar
     5    17    18   ar
     6    18    19   ar
     7    19    20    1
     8    20    21    1
     9    22    21    1
    10    22     1    1
    11     1     2    1
    12     2     3   ar
    13     3     4   ar
    14     4     5   ar
    15     5     6   ar
    16     6     7   ar
    17     7     8    1
    18     8     9   ar
    19     9    10   ar
    20    10    11   ar
    21    11    12   ar
    22    22    14    1
    23     1    12    1
    24    19    15   ar
    25     7     2   ar
    26    12     8   ar
    27    13    23    1
@<TRIPOS>MOLECULE
*****
 23 27 0 0 0
SMALL
GASTEIGER

@<TRIPOS>ATOM
      1 C          62.6918   86.2113   11.7986 C.3     1  UNL1        0.1123
      2 C          63.2834   87.2556   12.6983 C.ar    1  UNL1       -0.0002
      3 C          64.1202   87.1542   13.9391 C.ar    1  UNL1       -0.0024
      4 C          64.5755   88.3995   14.6404 C.ar    1  UNL1       -0.0003
      5 C          64.1941   89.7462   14.1009 C.ar    1  UNL1        0.0000
      6 C          63.3574   89.8476   12.8601 C.ar    1  UNL1        0.0012
      7 C          62.9021   88.6023   12.1588 C.ar    1  UNL1        0.0152
      8 C          62.0747   88.3902   10.9257 C.ar    1  UNL1        0.0804
      9 C          61.3276   89.0916    9.8302 C.ar    1  UNL1        0.1177
     10 N          60.7360   88.0472    8.9305 N.ar    1  UNL1       -0.2223
     11 C          61.1174   86.7005    9.4700 C.ar    1  UNL1        0.1788
     12 N          61.9447   86.9126   10.7031 N.ar    1  UNL1       -0.3069
     13 O          61.9593   84.9235   14.4073 O.3     1  UNL1       -0.3769
     14 C          62.4577   84.0826   13.2696 C.3     1  UNL1        0.1707
     15 C          62.5899   82.5977   13.4362 C.ar    1  UNL1        0.1703
     16 N          62.3074   81.6887   14.5955 N.ar    1  UNL1       -0.1307
     17 N          62.6312   80.2860   14.1742 N.ar    1  UNL1       -0.1258
     18 C          63.1139   80.3281   12.7547 C.ar    1  UNL1        0.2025
     19 N          63.0884   81.7568   12.2985 N.ar    1  UNL1       -0.2944
     20 C          63.4547   82.4007   10.9942 C.3     1  UNL1        0.1090
     21 C          63.3225   83.8855   10.8276 C.3     1  UNL1        0.0297
     22 C          62.8240   84.7265   11.9652 C.3     1  UNL1        0.0612
     23 H          61.7694   84.3554   15.1703 H       1  UNL1        0.2109
@<TRIPOS>BOND
     1    14    13    1
     2    14    15    1
     3    15    16   ar
     4    16    17   ar
     5    17    18   ar
     6    18    19   ar
     7    19    20    1
     8    20    21    1
     9    22    21    1
    10    22     1    1
    11     1     2    1
    12     2     3   ar
    13     3     4   ar
    14     4     5   ar
    15     5     6   ar
    16     6     7   ar
    17     7     8    1
    18     8     9   ar
    19     9    10   ar
    20    10    11   ar
    21    11    12   ar
    22    22    14    1
    23     1    12    1
    24    19    15   ar
    25     7     2   ar
    26    12     8   ar
    27    13    23    1
@<TRIPOS>MOLECULE
*****
 23 27 0 0 0
SMALL
GASTEIGER

@<TRIPOS>ATOM
      1 C          61.9570   86.5954   10.1862 C.3     1  UNL1        0.1123
      2 C          62.2419   87.9395   10.7880 C.ar    1  UNL1       -0.0002
      3 C          63.1604   88.3702   11.8929 C.ar    1  UNL1       -0.0024
      4 C          63.2354   89.8160   12.2851 C.ar    1  UNL1       -0.0003
      5 C          62.3919   90.8312   11.5724 C.ar    1  UNL1        0.0000
      6 C          61.4734   90.4005   10.4675 C.ar    1  UNL1        0.0012
      7 C          61.3984   88.9547   10.0753 C.ar    1  UNL1        0.0152
      8 C          60.5922   88.2379    9.0330 C.ar    1  UNL1        0.0804
      9 C          59.5726   88.4224    7.9483 C.ar    1  UNL1        0.1177
     10 N          59.2877   87.0782    7.3465 N.ar    1  UNL1       -0.2223
     11 C          60.1312   86.0630    8.0593 C.ar    1  UNL1        0.1788
     12 N          60.9374   86.7798    9.1015 N.ar    1  UNL1       -0.3069
     13 O          61.6639   85.6150   13.0064 O.3     1  UNL1       -0.3769
     14 C          62.4354   84.8049   12.0071 C.3     1  UNL1        0.1707
     15 C          63.0603   83.5046   12.4179 C.ar    1  UNL1        0.1703
     16 N          63.0846   82.7718   13.7265 N.ar    1  UNL1       -0.1307
     17 N          63.8711   81.5088   13.5359 N.ar    1  UNL1       -0.1258
     18 C          64.3329   81.4611   12.1096 C.ar    1  UNL1        0.2025
     19 N          63.8318   82.6945   11.4186 N.ar    1  UNL1       -0.2944
     20 C          63.9783   83.1847   10.0086 C.3     1  UNL1        0.1090
     21 C          63.3534   84.4850    9.5978 C.3     1  UNL1        0.0297
     22 C          62.5819   85.2951   10.5970 C.3     1  UNL1        0.0612
     23 H          61.6660   85.1594   13.8627 H       1  UNL1        0.2109
@<TRIPOS>BOND
     1    14    13    1
     2    14    15    1
     3    15    16   ar
     4    16    17   ar
     5    17    18   ar
     6    18    19   ar
     7    19    20    1
     8    20    21    1
     9    22    21    1
    10    22     1    1
    11     1     2    1
    12     2     3   ar
    13     3     4   ar
    14     4     5   ar
    15     5     6   ar
    16     6     7   ar
    17     7     8    1
    18     8     9   ar
    19     9    10   ar
    20    10    11   ar
    21    11    12   ar
    22    22    14    1
    23     1    12    1
    24    19    15   ar
    25     7     2   ar
    26    12     8   ar
    27    13    23    1
@<TRIPOS>MOLECULE
*****
 23 27 0 0 0
SMALL
GASTEIGER

@<TRIPOS>ATOM
      1 C          62.9645   86.8388   12.1563 C.3     1  UNL1        0.1123
      2 C          63.3743   88.1816   12.6845 C.ar    1  UNL1       -0.0002
      3 C          63.2200   89.5674   12.1316 C.ar    1  UNL1       -0.0024
      4 C          63.7406   90.7445   12.9019 C.ar    1  UNL1       -0.0003
      5 C          64.4155   90.5357   14.2252 C.ar    1  UNL1        0.0000
      6 C          64.5697   89.1500   14.7781 C.ar    1  UNL1        0.0012
      7 C          64.0491   87.9729   14.0078 C.ar    1  UNL1        0.0152
      8 C          64.0564   86.5011   14.2973 C.ar    1  UNL1        0.0804
      9 C          64.4780   85.4625   15.2942 C.ar    1  UNL1        0.1177
     10 N          64.0683   84.1197   14.7658 N.ar    1  UNL1       -0.2223
     11 C          63.3935   84.3284   13.4425 C.ar    1  UNL1        0.1788
     12 N          63.3861   85.8002   13.1530 N.ar    1  UNL1       -0.3069
     13 O          60.1725   87.8549   11.7412 O.3     1  UNL1       -0.3769
     14 C          60.8613   87.0882   10.6514 C.3     1  UNL1        0.1707
     15 C          60.1541   86.8294    9.3541 C.ar    1  UNL1        0.1703
     16 N          58.7864   87.2033    8.8646 N.ar    1  UNL1       -0.1307
     17 N          58.6300   86.6676    7.4723 N.ar    1  UNL1       -0.1258
     18 C          59.9010   85.9627    7.1014 C.ar    1  UNL1        0.2025
     19 N          60.8430   86.0627    8.2643 N.ar    1  UNL1       -0.2944
     20 C          62.2390   85.5547    8.4719 C.3     1  UNL1        0.1090
     21 C          62.9461   85.8134    9.7692 C.3     1  UNL1        0.0297
     22 C          62.2574   86.5801   10.8590 C.3     1  UNL1        0.0612
     23 H          59.2836   88.1079   11.4464 H       1  UNL1        0.2109
@<TRIPOS>BOND
     1    14    13    1
     2    14    15    1
     3    15    16   ar
     4    16    17   ar
     5    17    18   ar
     6    18    19   ar
     7    19    20    1
     8    20    21    1
     9    22    21    1
    10    22     1    1
    11     1     2    1
    12     2     3   ar
    13     3     4   ar
    14     4     5   ar
    15     5     6   ar
    16     6     7   ar
    17     7     8    1
    18     8     9   ar
    19     9    10   ar
    20    10    11   ar
    21    11    12   ar
    22    22    14    1
    23     1    12    1
    24    19    15   ar
    25     7     2   ar
    26    12     8   ar
    27    13    23    1
@<TRIPOS>MOLECULE
*****
 23 27 0 0 0
SMALL
GASTEIGER

@<TRIPOS>ATOM
      1 C          61.9705   87.1198   10.7113 C.3     1  UNL1        0.1123
      2 C          60.9992   87.2702    9.5782 C.ar    1  UNL1       -0.0002
      3 C          60.2601   86.2620    8.7492 C.ar    1  UNL1       -0.0024
      4 C          59.3350   86.7193    7.6607 C.ar    1  UNL1       -0.0003
      5 C          59.1489   88.1850    7.4012 C.ar    1  UNL1        0.0000
      6 C          59.8879   89.1932    8.2302 C.ar    1  UNL1        0.0012
      7 C          60.8131   88.7358    9.3186 C.ar    1  UNL1        0.0152
      8 C          61.6694   89.4912   10.2913 C.ar    1  UNL1        0.0804
      9 C          62.0836   90.8639   10.7321 C.ar    1  UNL1        0.1177
     10 N          63.0550   90.7134   11.8652 N.ar    1  UNL1       -0.2223
     11 C          63.2411   89.2478   12.1247 C.ar    1  UNL1        0.1788
     12 N          62.3848   88.4925   11.1520 N.ar    1  UNL1       -0.3069
     13 O          63.3247   85.0868    8.9696 O.3     1  UNL1       -0.3769
     14 C          63.1215   84.8077   10.4293 C.3     1  UNL1        0.1707
     15 C          63.5954   83.5120   11.0182 C.ar    1  UNL1        0.1703
     16 N          64.2902   82.3288   10.4123 N.ar    1  UNL1       -0.1307
     17 N          64.5164   81.3183   11.4976 N.ar    1  UNL1       -0.1258
     18 C          63.9615   81.8771   12.7742 C.ar    1  UNL1        0.2025
     19 N          63.3923   83.2329   12.4779 N.ar    1  UNL1       -0.2944
     20 C          62.7153   84.2494   13.3488 C.3     1  UNL1        0.1090
     21 C          62.2414   85.5450   12.7598 C.3     1  UNL1        0.0297
     22 C          62.4444   85.8242   11.3002 C.3     1  UNL1        0.0612
     23 H          63.7736   84.3331    8.5557 H       1  UNL1        0.2109
@<TRIPOS>BOND
     1    14    13    1
     2    14    15    1
     3    15    16   ar
     4    16    17   ar
     5    17    18   ar
     6    18    19   ar
     7    19    20    1
     8    20    21    1
     9    22    21    1
    10    22     1    1
    11     1     2    1
    12     2     3   ar
    13     3     4   ar
    14     4     5   ar
    15     5     6   ar
    16     6     7   ar
    17     7     8    1
    18     8     9   ar
    19     9    10   ar
    20    10    11   ar
    21    11    12   ar
    22    22    14    1
    23     1    12    1
    24    19    15   ar
    25     7     2   ar
    26    12     8   ar
    27    13    23    1
@<TRIPOS>MOLECULE
*****
 23 27 0 0 0
SMALL
GASTEIGER

@<TRIPOS>ATOM
      1 C          63.5578   90.6598   12.5132 C.3     1  UNL1        0.1123
      2 C          64.5763   91.6959   12.1403 C.ar    1  UNL1       -0.0002
      3 C          65.0400   92.2149   10.8115 C.ar    1  UNL1       -0.0024
      4 C          66.0972   93.2770   10.7487 C.ar    1  UNL1       -0.0003
      5 C          66.6908   93.8203   12.0147 C.ar    1  UNL1        0.0000
      6 C          66.2271   93.3013   13.3434 C.ar    1  UNL1        0.0012
      7 C          65.1699   92.2391   13.4062 C.ar    1  UNL1        0.0152
      8 C          64.5182   91.5387   14.5615 C.ar    1  UNL1        0.0804
      9 C          64.4822   91.4416   16.0580 C.ar    1  UNL1        0.1177
     10 N          63.4637   90.4054   16.4309 N.ar    1  UNL1       -0.2223
     11 C          62.8701   89.8622   15.1649 C.ar    1  UNL1        0.1788
     12 N          63.5218   90.5626   14.0096 N.ar    1  UNL1       -0.3069
     13 O          63.5266   87.6650   12.6890 O.3     1  UNL1       -0.3769
     14 C          62.7064   88.3636   11.6454 C.3     1  UNL1        0.1707
     15 C          61.8705   87.5649   10.6896 C.ar    1  UNL1        0.1703
     16 N          61.6565   86.0883   10.5356 N.ar    1  UNL1       -0.1307
     17 N          60.7039   85.8743    9.3968 N.ar    1  UNL1       -0.1258
     18 C          60.3293   87.2187    8.8471 C.ar    1  UNL1        0.2025
     19 N          61.0503   88.2635    9.6460 N.ar    1  UNL1       -0.2944
     20 C          61.0659   89.7609    9.5582 C.3     1  UNL1        0.1090
     21 C          61.9017   90.5596   10.5139 C.3     1  UNL1        0.0297
     22 C          62.7220   89.8611   11.5575 C.3     1  UNL1        0.0612
     23 H          63.4037   86.7062   12.6084 H       1  UNL1        0.2109
@<TRIPOS>BOND
     1    14    13    1
     2    14    15    1
     3    15    16   ar
     4    16    17   ar
     5    17    18   ar
     6    18    19   ar
     7    19    20    1
     8    20    21    1
     9    22    21    1
    10    22     1    1
    11     1     2    1
    12     2     3   ar
    13     3     4   ar
    14     4     5   ar
    15     5     6   ar
    16     6     7   ar
    17     7     8    1
    18     8     9   ar
    19     9    10   ar
    20    10    11   ar
    21    11    12   ar
    22    22    14    1
    23     1    12    1
    24    19    15   ar
    25     7     2   ar
    26    12     8   ar
    27    13    23    1
@<TRIPOS>MOLECULE
*****
 23 27 0 0 0
SMALL
GASTEIGER

@<TRIPOS>ATOM
      1 C          62.7573   85.2942   11.8264 C.3     1  UNL1        0.1123
      2 C          62.9576   83.8961   12.3317 C.ar    1  UNL1       -0.0002
      3 C          62.5844   82.5598   11.7616 C.ar    1  UNL1       -0.0024
      4 C          62.9222   81.3044   12.5099 C.ar    1  UNL1       -0.0003
      5 C          63.6331   81.3854   13.8282 C.ar    1  UNL1        0.0000
      6 C          64.0063   82.7217   14.3982 C.ar    1  UNL1        0.0012
      7 C          63.6685   83.9770   13.6500 C.ar    1  UNL1        0.0152
      8 C          63.9077   85.4251   13.9595 C.ar    1  UNL1        0.0804
      9 C          64.4949   86.3702   14.9656 C.ar    1  UNL1        0.1177
     10 N          64.2946   87.7683   14.4603 N.ar    1  UNL1       -0.2223
     11 C          63.5836   87.6873   13.1420 C.ar    1  UNL1        0.1788
     12 N          63.3445   86.2392   12.8325 N.ar    1  UNL1       -0.3069
     13 O          60.3833   87.1281   11.8630 O.3     1  UNL1       -0.3769
     14 C          60.9004   86.5965   10.5591 C.3     1  UNL1        0.1707
     15 C          60.2306   86.9819    9.2735 C.ar    1  UNL1        0.1703
     16 N          59.0512   87.8613    8.9805 N.ar    1  UNL1       -0.1307
     17 N          58.8394   87.8732    7.4956 N.ar    1  UNL1       -0.1258
     18 C          59.8879   87.0012    6.8709 C.ar    1  UNL1        0.2025
     19 N          60.7477   86.4504    7.9696 N.ar    1  UNL1       -0.2944
     20 C          61.9346   85.5335    7.9514 C.3     1  UNL1        0.1090
     21 C          62.6045   85.1481    9.2370 C.3     1  UNL1        0.0297
     22 C          62.0875   85.6796   10.5408 C.3     1  UNL1        0.0612
     23 H          59.6182   87.7011   11.6979 H       1  UNL1        0.2109
@<TRIPOS>BOND
     1    14    13    1
     2    14    15    1
     3    15    16   ar
     4    16    17   ar
     5    17    18   ar
     6    18    19   ar
     7    19    20    1
     8    20    21    1
     9    22    21    1
    10    22     1    1
    11     1     2    1
    12     2     3   ar
    13     3     4   ar
    14     4     5   ar
    15     5     6   ar
    16     6     7   ar
    17     7     8    1
    18     8     9   ar
    19     9    10   ar
    20    10    11   ar
    21    11    12   ar
    22    22    14    1
    23     1    12    1
    24    19    15   ar
    25     7     2   ar
    26    12     8   ar
    27    13    23    1
@<TRIPOS>MOLECULE
*****
 23 27 0 0 0
SMALL
GASTEIGER

@<TRIPOS>ATOM
      1 C          63.1423   88.9422   12.3996 C.3     1  UNL1        0.1123
      2 C          63.1738   87.4509   12.5574 C.ar    1  UNL1       -0.0002
      3 C          63.8678   86.5606   13.5452 C.ar    1  UNL1       -0.0024
      4 C          63.7103   85.0717   13.4527 C.ar    1  UNL1       -0.0003
      5 C          62.8588   84.4733   12.3725 C.ar    1  UNL1        0.0000
      6 C          62.1648   85.3636   11.3848 C.ar    1  UNL1        0.0012
      7 C          62.3223   86.8524   11.4773 C.ar    1  UNL1        0.0152
      8 C          61.7646   87.9739   10.6519 C.ar    1  UNL1        0.0804
      9 C          60.8936   88.2971    9.4741 C.ar    1  UNL1        0.1177
     10 N          60.8622   89.7885    9.3164 N.ar    1  UNL1       -0.2223
     11 C          61.7137   90.3870   10.3965 C.ar    1  UNL1        0.1788
     12 N          62.2714   89.2655   11.2219 N.ar    1  UNL1       -0.3069
     13 O          62.1175   89.5366   15.1559 O.3     1  UNL1       -0.3769
     14 C          63.3440   90.2331   14.6454 C.3     1  UNL1        0.1707
     15 C          64.0582   91.2267   15.5129 C.ar    1  UNL1        0.1703
     16 N          63.7899   91.7203   16.9038 N.ar    1  UNL1       -0.1307
     17 N          64.8506   92.7218   17.2529 N.ar    1  UNL1       -0.1258
     18 C          65.7744   92.8471   16.0778 C.ar    1  UNL1        0.2025
     19 N          65.2847   91.9232   15.0025 N.ar    1  UNL1       -0.2944
     20 C          65.7970   91.6260   13.6244 C.3     1  UNL1        0.1090
     21 C          65.0829   90.6323   12.7568 C.3     1  UNL1        0.0297
     22 C          63.8565   89.9359   13.2672 C.3     1  UNL1        0.0612
     23 H          61.9242   89.8408   16.0564 H       1  UNL1        0.2109
@<TRIPOS>BOND
     1    14    13    1
     2    14    15    1
     3    15    16   ar
     4    16    17   ar
     5    17    18   ar
     6    18    19   ar
     7    19    20    1
     8    20    21    1
     9    22    21    1
    10    22     1    1
    11     1     2    1
    12     2     3   ar
    13     3     4   ar
    14     4     5   ar
    15     5     6   ar
    16     6     7   ar
    17     7     8    1
    18     8     9   ar
    19     9    10   ar
    20    10    11   ar
    21    11    12   ar
    22    22    14    1
    23     1    12    1
    24    19    15   ar
    25     7     2   ar
    26    12     8   ar
    27    13    23    1
