@<TRIPOS>MOLECULE
*****
 27 30 0 0 0
SMALL
GASTEIGER

@<TRIPOS>ATOM
      1 C          63.7518   89.2035   15.7721 C.ar    1  UNL1        0.0207
      2 C          64.3399   88.4201   14.6362 C.ar    1  UNL1        0.0994
      3 N          64.2789   86.9214   14.6478 N.ar    1  UNL1       -0.2126
      4 C          63.6296   86.2060   15.7953 C.ar    1  UNL1        0.2172
      5 N          63.0414   86.9895   16.9312 N.ar    1  UNL1       -0.2126
      6 C          63.1025   88.4882   16.9197 C.ar    1  UNL1        0.0994
      7 N          63.5686   84.7073   15.8068 N.pl3   1  UNL1       -0.2978
      8 H          64.3007   84.1879   16.2111 H       1  UNL1        0.1500
      9 C          62.3920   84.0000   15.2024 C.3     1  UNL1        0.1359
     10 C          62.5946   83.0470   14.0619 C.ar    1  UNL1        0.0784
     11 C          62.1048   81.6334   14.1695 C.ar    1  UNL1        0.0164
     12 C          62.3074   80.6805   13.0289 C.ar    1  UNL1        0.0025
     13 C          63.0000   81.1412   11.7807 C.ar    1  UNL1        0.0147
     14 C          63.4898   82.5549   11.6731 C.ar    1  UNL1        0.0590
     15 C          64.1824   83.0157   10.4248 C.3     1  UNL1        0.0521
     16 N          63.2872   83.5078   12.8136 N.ar    1  UNL1       -0.2523
     17 C          63.8128   90.7022   15.7606 C.3     1  UNL1        0.0596
     18 C          63.0941   91.2620    9.9329 C.3     1  UNL1        0.0307
     19 C          64.0941   91.6310   10.9883 C.2     1  UNL1        0.0074
     20 C          65.3447   92.3686   10.6115 C.2     1  UNL1        0.2278
     21 N          66.3446   92.7375   11.6669 N.2     1  UNL1       -0.0314
     22 C          66.0941   92.3689   13.0991 C.2     1  UNL1        0.3716
     23 N          66.8920   92.5971   14.3486 N.2     1  UNL1       -0.0311
     24 C          66.1345   92.0005   15.4977 C.2     1  UNL1        0.2319
     25 C          64.8685   91.4036   14.9584 C.2     1  UNL1        0.0328
     26 C          64.8435   91.6314   13.4759 C.2     1  UNL1        0.0704
     27 C          63.8435   91.2624   12.4205 C.3     1  UNL1        0.0598
@<TRIPOS>BOND
     1    18    19    1
     2    19    20    2
     3    20    21    1
     4    21    22    2
     5    22    23    1
     6    23    24    2
     7    24    25    1
     8    25    17    1
     9    17     1    1
    10     1     2   ar
    11     2     3   ar
    12     3     4   ar
    13     4     7    1
    14     7     9    1
    15     9    10    1
    16    10    11   ar
    17    11    12   ar
    18    12    13   ar
    19    13    14   ar
    20    14    15    1
    21    14    16   ar
    22     4     5   ar
    23     5     6   ar
    24    25    26    2
    25    26    27    1
    26    27    19    1
    27    26    22    1
    28     6     1   ar
    29    16    10   ar
    30     7     8    1
@<TRIPOS>MOLECULE
*****
 27 30 0 0 0
SMALL
GASTEIGER

@<TRIPOS>ATOM
      1 C          63.1361   84.4756   14.6184 C.ar    1  UNL1        0.0207
      2 C          64.1305   85.5485   14.2870 C.ar    1  UNL1        0.0994
      3 N          64.1899   86.7978   15.1150 N.ar    1  UNL1       -0.2126
      4 C          63.2549   86.9743   16.2745 C.ar    1  UNL1        0.2172
      5 N          62.2604   85.9013   16.6060 N.ar    1  UNL1       -0.2126
      6 C          62.2010   84.6519   15.7780 C.ar    1  UNL1        0.0994
      7 N          63.3143   88.2236   17.1026 N.pl3   1  UNL1       -0.2978
      8 H          63.6897   88.1939   18.0122 H       1  UNL1        0.1500
      9 C          62.8016   89.5182   16.5447 C.3     1  UNL1        0.1359
     10 C          63.4099   90.0912   15.2990 C.ar    1  UNL1        0.0784
     11 C          64.6275   90.9623   15.3911 C.ar    1  UNL1        0.0164
     12 C          65.2358   91.5353   14.1455 C.ar    1  UNL1        0.0025
     13 C          64.6264   91.2373   12.8076 C.ar    1  UNL1        0.0147
     14 C          63.4087   90.3661   12.7155 C.ar    1  UNL1        0.0590
     15 C          62.7993   90.0681   11.3777 C.3     1  UNL1        0.0521
     16 N          62.8005   89.7932   13.9612 N.ar    1  UNL1       -0.2523
     17 C          63.0768   83.2262   13.7904 C.3     1  UNL1        0.0596
     18 C          60.6421   87.2390   10.2180 C.3     1  UNL1        0.0307
     19 C          61.6427   86.1237   10.1483 C.2     1  UNL1        0.0074
     20 C          62.3199   85.8037    8.8487 C.2     1  UNL1        0.2278
     21 N          63.3205   84.6884    8.7791 N.2     1  UNL1       -0.0314
     22 C          63.6440   83.8931   10.0090 C.2     1  UNL1        0.3716
     23 N          64.5802   82.7451   10.2445 N.2     1  UNL1       -0.0311
     24 C          64.4817   82.3556   11.6897 C.2     1  UNL1        0.2319
     25 C          63.4846   83.2628   12.3474 C.2     1  UNL1        0.0328
     26 C          62.9668   84.2131   11.3086 C.2     1  UNL1        0.0704
     27 C          61.9662   85.3284   11.3783 C.3     1  UNL1        0.0598
@<TRIPOS>BOND
     1    18    19    1
     2    19    20    2
     3    20    21    1
     4    21    22    2
     5    22    23    1
     6    23    24    2
     7    24    25    1
     8    25    17    1
     9    17     1    1
    10     1     2   ar
    11     2     3   ar
    12     3     4   ar
    13     4     7    1
    14     7     9    1
    15     9    10    1
    16    10    11   ar
    17    11    12   ar
    18    12    13   ar
    19    13    14   ar
    20    14    15    1
    21    14    16   ar
    22     4     5   ar
    23     5     6   ar
    24    25    26    2
    25    26    27    1
    26    27    19    1
    27    26    22    1
    28     6     1   ar
    29    16    10   ar
    30     7     8    1
@<TRIPOS>MOLECULE
*****
 27 30 0 0 0
SMALL
GASTEIGER

@<TRIPOS>ATOM
      1 C          62.3079   88.4890   11.2042 C.ar    1  UNL1        0.0207
      2 C          63.1204   88.4489   12.4645 C.ar    1  UNL1        0.0994
      3 N          63.8822   89.6637   12.9047 N.ar    1  UNL1       -0.2126
      4 C          63.8316   90.9187   12.0848 C.ar    1  UNL1        0.2172
      5 N          63.0190   90.9588   10.8245 N.ar    1  UNL1       -0.2126
      6 C          62.2572   89.7440   10.3842 C.ar    1  UNL1        0.0994
      7 N          64.5934   92.1335   12.5251 N.pl3   1  UNL1       -0.2978
      8 H          64.1144   92.9011   12.9130 H       1  UNL1        0.1500
      9 C          66.0851   92.1787   12.3742 C.3     1  UNL1        0.1359
     10 C          66.7030   92.9812   11.2678 C.ar    1  UNL1        0.0784
     11 C          67.5380   92.3008   10.2238 C.ar    1  UNL1        0.0164
     12 C          68.1559   93.1033    9.1174 C.ar    1  UNL1        0.0025
     13 C          67.9389   94.5862    9.0548 C.ar    1  UNL1        0.0147
     14 C          67.1039   95.2666   10.0989 C.ar    1  UNL1        0.0590
     15 C          66.8869   96.7495   10.0364 C.3     1  UNL1        0.0521
     16 N          66.4860   94.4641   11.2053 N.ar    1  UNL1       -0.2523
     17 C          61.5461   87.2742   10.7639 C.3     1  UNL1        0.0596
     18 C          63.8939   83.1107   14.2200 C.3     1  UNL1        0.0307
     19 C          63.7710   83.4292   12.7594 C.2     1  UNL1        0.0074
     20 C          64.3736   82.5106   11.7382 C.2     1  UNL1        0.2278
     21 N          64.2508   82.8291   10.2776 N.2     1  UNL1       -0.0314
     22 C          63.5253   84.0662    9.8381 C.2     1  UNL1        0.3716
     23 N          63.2456   84.6366    8.4793 N.2     1  UNL1       -0.0311
     24 C          62.4702   85.9077    8.6607 C.2     1  UNL1        0.2319
     25 C          62.2705   86.1230   10.1317 C.2     1  UNL1        0.0328
     26 C          62.9227   84.9849   10.8594 C.2     1  UNL1        0.0704
     27 C          63.0456   84.6664   12.3200 C.3     1  UNL1        0.0598
@<TRIPOS>BOND
     1    18    19    1
     2    19    20    2
     3    20    21    1
     4    21    22    2
     5    22    23    1
     6    23    24    2
     7    24    25    1
     8    25    17    1
     9    17     1    1
    10     1     2   ar
    11     2     3   ar
    12     3     4   ar
    13     4     7    1
    14     7     9    1
    15     9    10    1
    16    10    11   ar
    17    11    12   ar
    18    12    13   ar
    19    13    14   ar
    20    14    15    1
    21    14    16   ar
    22     4     5   ar
    23     5     6   ar
    24    25    26    2
    25    26    27    1
    26    27    19    1
    27    26    22    1
    28     6     1   ar
    29    16    10   ar
    30     7     8    1
@<TRIPOS>MOLECULE
*****
 27 30 0 0 0
SMALL
GASTEIGER

@<TRIPOS>ATOM
      1 C          63.5267   91.1330   10.9844 C.ar    1  UNL1        0.0207
      2 C          63.5362   90.3603   12.2700 C.ar    1  UNL1        0.0994
      3 N          62.6862   89.1328   12.4136 N.ar    1  UNL1       -0.2126
      4 C          61.8268   88.6778   11.2715 C.ar    1  UNL1        0.2172
      5 N          61.8173   89.4505    9.9858 N.ar    1  UNL1       -0.2126
      6 C          62.6672   90.6781    9.8422 C.ar    1  UNL1        0.0994
      7 N          60.9768   87.4502   11.4151 N.pl3   1  UNL1       -0.2978
      8 H          60.1077   87.5042   11.8743 H       1  UNL1        0.1500
      9 C          61.4511   86.1404   10.8589 C.3     1  UNL1        0.1359
     10 C          62.4705   85.3331   11.6068 C.ar    1  UNL1        0.0784
     11 C          63.0887   84.1262   10.9657 C.ar    1  UNL1        0.0164
     12 C          64.1080   83.3189   11.7135 C.ar    1  UNL1        0.0025
     13 C          64.5091   83.7186   13.1026 C.ar    1  UNL1        0.0147
     14 C          63.8908   84.9256   13.7437 C.ar    1  UNL1        0.0590
     15 C          64.2920   85.3253   15.1327 C.3     1  UNL1        0.0521
     16 N          62.8716   85.7328   12.9958 N.ar    1  UNL1       -0.2523
     17 C          64.3766   92.3606   10.8408 C.3     1  UNL1        0.0596
     18 C          65.8616   92.4761   16.5481 C.3     1  UNL1        0.0307
     19 C          66.5317   92.4102   15.2077 C.2     1  UNL1        0.0074
     20 C          68.0278   92.3505   15.1192 C.2     1  UNL1        0.2278
     21 N          68.6979   92.2846   13.7788 N.2     1  UNL1       -0.0314
     22 C          67.8718   92.2783   12.5269 C.2     1  UNL1        0.3716
     23 N          68.2483   92.2203   11.0761 N.2     1  UNL1       -0.0311
     24 C          66.9849   92.2440   10.2679 C.2     1  UNL1        0.2319
     25 C          65.8274   92.3168   11.2192 C.2     1  UNL1        0.0328
     26 C          66.3756   92.3380   12.6153 C.2     1  UNL1        0.0704
     27 C          65.7056   92.4039   13.9557 C.3     1  UNL1        0.0598
@<TRIPOS>BOND
     1    18    19    1
     2    19    20    2
     3    20    21    1
     4    21    22    2
     5    22    23    1
     6    23    24    2
     7    24    25    1
     8    25    17    1
     9    17     1    1
    10     1     2   ar
    11     2     3   ar
    12     3     4   ar
    13     4     7    1
    14     7     9    1
    15     9    10    1
    16    10    11   ar
    17    11    12   ar
    18    12    13   ar
    19    13    14   ar
    20    14    15    1
    21    14    16   ar
    22     4     5   ar
    23     5     6   ar
    24    25    26    2
    25    26    27    1
    26    27    19    1
    27    26    22    1
    28     6     1   ar
    29    16    10   ar
    30     7     8    1
@<TRIPOS>MOLECULE
*****
 27 30 0 0 0
SMALL
GASTEIGER

@<TRIPOS>ATOM
      1 C          63.5578   88.8681   15.4574 C.ar    1  UNL1        0.0207
      2 C          63.0294   88.2243   16.7049 C.ar    1  UNL1        0.0994
      3 N          63.1487   86.7408   16.8917 N.ar    1  UNL1       -0.2126
      4 C          63.7963   85.9010   15.8309 C.ar    1  UNL1        0.2172
      5 N          64.3247   86.5448   14.5833 N.ar    1  UNL1       -0.2126
      6 C          64.2055   88.0283   14.3965 C.ar    1  UNL1        0.0994
      7 N          63.9156   84.4174   16.0177 N.pl3   1  UNL1       -0.2978
      8 H          64.4928   84.0556   16.7284 H       1  UNL1        0.1500
      9 C          63.1553   83.4852   15.1216 C.3     1  UNL1        0.1359
     10 C          63.2871   83.6027   13.6321 C.ar    1  UNL1        0.0784
     11 C          64.2525   82.7241   12.8930 C.ar    1  UNL1        0.0164
     12 C          64.3843   82.8416   11.4034 C.ar    1  UNL1        0.0025
     13 C          63.5509   83.8376   10.6529 C.ar    1  UNL1        0.0147
     14 C          62.5855   84.7161   11.3921 C.ar    1  UNL1        0.0590
     15 C          61.7520   85.7121   10.6415 C.3     1  UNL1        0.0521
     16 N          62.4537   84.5987   12.8816 N.ar    1  UNL1       -0.2523
     17 C          63.4385   90.3516   15.2706 C.3     1  UNL1        0.0596
     18 C          68.9019   92.2651   16.4030 C.3     1  UNL1        0.0307
     19 C          67.9295   92.2352   15.2612 C.2     1  UNL1        0.0074
     20 C          68.3081   92.8310   13.9378 C.2     1  UNL1        0.2278
     21 N          67.3357   92.8010   12.7961 N.2     1  UNL1       -0.0314
     22 C          65.9847   92.1753   12.9778 C.2     1  UNL1        0.3716
     23 N          64.8259   91.9994   12.0417 N.2     1  UNL1       -0.0311
     24 C          63.7310   91.2948   12.7867 C.2     1  UNL1        0.2319
     25 C          64.2132   91.0353   14.1832 C.2     1  UNL1        0.0328
     26 C          65.6060   91.5795   14.3012 C.2     1  UNL1        0.0704
     27 C          66.5784   91.6094   15.4430 C.3     1  UNL1        0.0598
@<TRIPOS>BOND
     1    18    19    1
     2    19    20    2
     3    20    21    1
     4    21    22    2
     5    22    23    1
     6    23    24    2
     7    24    25    1
     8    25    17    1
     9    17     1    1
    10     1     2   ar
    11     2     3   ar
    12     3     4   ar
    13     4     7    1
    14     7     9    1
    15     9    10    1
    16    10    11   ar
    17    11    12   ar
    18    12    13   ar
    19    13    14   ar
    20    14    15    1
    21    14    16   ar
    22     4     5   ar
    23     5     6   ar
    24    25    26    2
    25    26    27    1
    26    27    19    1
    27    26    22    1
    28     6     1   ar
    29    16    10   ar
    30     7     8    1
@<TRIPOS>MOLECULE
*****
 27 30 0 0 0
SMALL
GASTEIGER

@<TRIPOS>ATOM
      1 C          63.3490   88.8899   13.0329 C.ar    1  UNL1        0.0207
      2 C          64.1432   88.9133   14.3052 C.ar    1  UNL1        0.0994
      3 N          64.6237   87.6290   14.9132 N.ar    1  UNL1       -0.2126
      4 C          64.3099   86.3212   14.2490 C.ar    1  UNL1        0.2172
      5 N          63.5156   86.2978   12.9767 N.ar    1  UNL1       -0.2126
      6 C          63.0352   87.5821   12.3686 C.ar    1  UNL1        0.0994
      7 N          64.7903   85.0369   14.8570 N.pl3   1  UNL1       -0.2978
      8 H          65.7556   84.8579   14.9307 H       1  UNL1        0.1500
      9 C          63.8000   84.0252   15.3528 C.3     1  UNL1        0.1359
     10 C          63.3111   82.9428   14.4367 C.ar    1  UNL1        0.0784
     11 C          64.0813   82.6073   13.1940 C.ar    1  UNL1        0.0164
     12 C          63.5923   81.5249   12.2779 C.ar    1  UNL1        0.0025
     13 C          62.3331   80.7780   12.6043 C.ar    1  UNL1        0.0147
     14 C          61.5629   81.1136   13.8470 C.ar    1  UNL1        0.0590
     15 C          60.3037   80.3667   14.1735 C.3     1  UNL1        0.0521
     16 N          62.0519   82.1959   14.7631 N.ar    1  UNL1       -0.2523
     17 C          62.8686   90.1742   12.4249 C.3     1  UNL1        0.0596
     18 C          66.5751   92.5989   16.3204 C.3     1  UNL1        0.0307
     19 C          66.2655   92.6787   14.8548 C.2     1  UNL1        0.0074
     20 C          67.0445   93.6093   13.9733 C.2     1  UNL1        0.2278
     21 N          66.7350   93.6891   12.5078 N.2     1  UNL1       -0.0314
     22 C          65.6464   92.8383   11.9237 C.2     1  UNL1        0.3716
     23 N          65.1195   92.7026   10.5259 N.2     1  UNL1       -0.0311
     24 C          64.0147   91.6880   10.5435 C.2     1  UNL1        0.2319
     25 C          63.8589   91.1968   11.9522 C.2     1  UNL1        0.0328
     26 C          64.8674   91.9078   12.8052 C.2     1  UNL1        0.0704
     27 C          65.1769   91.8279   14.2708 C.3     1  UNL1        0.0598
@<TRIPOS>BOND
     1    18    19    1
     2    19    20    2
     3    20    21    1
     4    21    22    2
     5    22    23    1
     6    23    24    2
     7    24    25    1
     8    25    17    1
     9    17     1    1
    10     1     2   ar
    11     2     3   ar
    12     3     4   ar
    13     4     7    1
    14     7     9    1
    15     9    10    1
    16    10    11   ar
    17    11    12   ar
    18    12    13   ar
    19    13    14   ar
    20    14    15    1
    21    14    16   ar
    22     4     5   ar
    23     5     6   ar
    24    25    26    2
    25    26    27    1
    26    27    19    1
    27    26    22    1
    28     6     1   ar
    29    16    10   ar
    30     7     8    1
@<TRIPOS>MOLECULE
*****
 27 30 0 0 0
SMALL
GASTEIGER

@<TRIPOS>ATOM
      1 C          63.3777   90.3295   11.3200 C.ar    1  UNL1        0.0207
      2 C          62.6947   89.6166   10.1907 C.ar    1  UNL1        0.0994
      3 N          62.2718   88.1866   10.3530 N.ar    1  UNL1       -0.2126
      4 C          62.5319   87.4695   11.6446 C.ar    1  UNL1        0.2172
      5 N          63.2149   88.1825   12.7739 N.ar    1  UNL1       -0.2126
      6 C          63.6378   89.6125   12.6116 C.ar    1  UNL1        0.0994
      7 N          62.1090   86.0396   11.8068 N.pl3   1  UNL1       -0.2978
      8 H          61.2536   85.7332   11.4278 H       1  UNL1        0.1500
      9 C          62.9894   85.0765   12.5467 C.3     1  UNL1        0.1359
     10 C          62.9906   83.6235   12.1742 C.ar    1  UNL1        0.0784
     11 C          63.5704   83.1861   10.8618 C.ar    1  UNL1        0.0164
     12 C          63.5717   81.7331   10.4894 C.ar    1  UNL1        0.0025
     13 C          62.9931   80.7174   11.4294 C.ar    1  UNL1        0.0147
     14 C          62.4133   81.1548   12.7419 C.ar    1  UNL1        0.0590
     15 C          61.8347   80.1391   13.6819 C.3     1  UNL1        0.0521
     16 N          62.4121   82.6077   13.1142 N.ar    1  UNL1       -0.2523
     17 C          63.8006   91.7595   11.1577 C.3     1  UNL1        0.0596
     18 C          65.1906   92.2584   16.8683 C.3     1  UNL1        0.0307
     19 C          65.8414   92.4319   15.5280 C.2     1  UNL1        0.0074
     20 C          67.2770   92.8576   15.4408 C.2     1  UNL1        0.2278
     21 N          67.9278   93.0311   14.1005 N.2     1  UNL1       -0.0314
     22 C          67.1429   92.7789   12.8474 C.2     1  UNL1        0.3716
     23 N          67.5129   92.8672   11.3964 N.2     1  UNL1       -0.0311
     24 C          66.3058   92.4961   10.5868 C.2     1  UNL1        0.2319
     25 C          65.1899   92.1784   11.5374 C.2     1  UNL1        0.0328
     26 C          65.7073   92.3532   12.9346 C.2     1  UNL1        0.0704
     27 C          65.0565   92.1797   14.2749 C.3     1  UNL1        0.0598
@<TRIPOS>BOND
     1    18    19    1
     2    19    20    2
     3    20    21    1
     4    21    22    2
     5    22    23    1
     6    23    24    2
     7    24    25    1
     8    25    17    1
     9    17     1    1
    10     1     2   ar
    11     2     3   ar
    12     3     4   ar
    13     4     7    1
    14     7     9    1
    15     9    10    1
    16    10    11   ar
    17    11    12   ar
    18    12    13   ar
    19    13    14   ar
    20    14    15    1
    21    14    16   ar
    22     4     5   ar
    23     5     6   ar
    24    25    26    2
    25    26    27    1
    26    27    19    1
    27    26    22    1
    28     6     1   ar
    29    16    10   ar
    30     7     8    1
@<TRIPOS>MOLECULE
*****
 27 30 0 0 0
SMALL
GASTEIGER

@<TRIPOS>ATOM
      1 C          63.4583   88.7614   12.6948 C.ar    1  UNL1        0.0207
      2 C          64.1978   89.0840   13.9593 C.ar    1  UNL1        0.0994
      3 N          64.5675   87.9866   14.9128 N.ar    1  UNL1       -0.2126
      4 C          64.1976   86.5666   14.6018 C.ar    1  UNL1        0.2172
      5 N          63.4580   86.2440   13.3372 N.ar    1  UNL1       -0.2126
      6 C          63.0884   87.3414   12.3837 C.ar    1  UNL1        0.0994
      7 N          64.5672   85.4692   15.5553 N.pl3   1  UNL1       -0.2978
      8 H          65.4591   85.4589   15.9720 H       1  UNL1        0.1500
      9 C          63.5780   84.3876   15.8738 C.3     1  UNL1        0.1359
     10 C          63.3243   83.2884   14.8852 C.ar    1  UNL1        0.0784
     11 C          64.3303   82.9989   13.8110 C.ar    1  UNL1        0.0164
     12 C          64.0767   81.8996   12.8224 C.ar    1  UNL1        0.0025
     13 C          62.8170   81.0899   12.9080 C.ar    1  UNL1        0.0147
     14 C          61.8109   81.3794   13.9824 C.ar    1  UNL1        0.0590
     15 C          60.5512   80.5696   14.0680 C.3     1  UNL1        0.0521
     16 N          62.0646   82.4786   14.9709 N.ar    1  UNL1       -0.2523
     17 C          63.0886   89.8587   11.7413 C.3     1  UNL1        0.0596
     18 C          62.4486   85.2763    8.0830 C.3     1  UNL1        0.0307
     19 C          61.6890   86.4986    8.5060 C.2     1  UNL1        0.0074
     20 C          60.3422   86.7876    7.9123 C.2     1  UNL1        0.2278
     21 N          59.5827   88.0099    8.3353 N.2     1  UNL1       -0.0314
     22 C          60.1699   88.9434    9.3520 C.2     1  UNL1        0.3716
     23 N          59.6592   90.2164    9.9591 N.2     1  UNL1       -0.0311
     24 C          60.6904   90.7142   10.9280 C.2     1  UNL1        0.2319
     25 C          61.8384   89.7489   10.9198 C.2     1  UNL1        0.0328
     26 C          61.5168   88.6544    9.9457 C.2     1  UNL1        0.0704
     27 C          62.2763   87.4321    9.5227 C.3     1  UNL1        0.0598
@<TRIPOS>BOND
     1    18    19    1
     2    19    20    2
     3    20    21    1
     4    21    22    2
     5    22    23    1
     6    23    24    2
     7    24    25    1
     8    25    17    1
     9    17     1    1
    10     1     2   ar
    11     2     3   ar
    12     3     4   ar
    13     4     7    1
    14     7     9    1
    15     9    10    1
    16    10    11   ar
    17    11    12   ar
    18    12    13   ar
    19    13    14   ar
    20    14    15    1
    21    14    16   ar
    22     4     5   ar
    23     5     6   ar
    24    25    26    2
    25    26    27    1
    26    27    19    1
    27    26    22    1
    28     6     1   ar
    29    16    10   ar
    30     7     8    1
@<TRIPOS>MOLECULE
*****
 27 30 0 0 0
SMALL
GASTEIGER

@<TRIPOS>ATOM
      1 C          62.3150   89.0827   10.9822 C.ar    1  UNL1        0.0207
      2 C          62.8331   89.4800   12.3326 C.ar    1  UNL1        0.0994
      3 N          63.6317   90.7400   12.4887 N.ar    1  UNL1       -0.2126
      4 C          63.9123   91.6029   11.2942 C.ar    1  UNL1        0.2172
      5 N          63.3942   91.2056    9.9437 N.ar    1  UNL1       -0.2126
      6 C          62.5956   89.9455    9.7877 C.ar    1  UNL1        0.0994
      7 N          64.7110   92.8630   11.4502 N.pl3   1  UNL1       -0.2978
      8 H          64.2699   93.7391   11.3651 H       1  UNL1        0.1500
      9 C          66.1816   92.7883   11.7360 C.3     1  UNL1        0.1359
     10 C          66.6629   92.5845   13.1420 C.ar    1  UNL1        0.0784
     11 C          68.1088   92.2829   13.4034 C.ar    1  UNL1        0.0164
     12 C          68.5902   92.0790   14.8094 C.ar    1  UNL1        0.0025
     13 C          67.6257   92.1768   15.9540 C.ar    1  UNL1        0.0147
     14 C          66.1797   92.4784   15.6925 C.ar    1  UNL1        0.0590
     15 C          65.2151   92.5762   16.8371 C.3     1  UNL1        0.0521
     16 N          65.6984   92.6822   14.2866 N.ar    1  UNL1       -0.2523
     17 C          61.5164   87.8226   10.8262 C.3     1  UNL1        0.0596
     18 C          63.5987   83.4580   14.2034 C.3     1  UNL1        0.0307
     19 C          63.4686   83.7961   12.7478 C.2     1  UNL1        0.0074
     20 C          63.9717   82.8395   11.7077 C.2     1  UNL1        0.2278
     21 N          63.8416   83.1777   10.2521 N.2     1  UNL1       -0.0314
     22 C          63.2085   84.4725    9.8367 C.2     1  UNL1        0.3716
     23 N          62.9449   85.0736    8.4879 N.2     1  UNL1       -0.0311
     24 C          62.2790   86.4017    8.6944 C.2     1  UNL1        0.2319
     25 C          62.1310   86.6215   10.1708 C.2     1  UNL1        0.0328
     26 C          62.7055   85.4291   10.8767 C.2     1  UNL1        0.0704
     27 C          62.8356   85.0909   12.3323 C.3     1  UNL1        0.0598
@<TRIPOS>BOND
     1    18    19    1
     2    19    20    2
     3    20    21    1
     4    21    22    2
     5    22    23    1
     6    23    24    2
     7    24    25    1
     8    25    17    1
     9    17     1    1
    10     1     2   ar
    11     2     3   ar
    12     3     4   ar
    13     4     7    1
    14     7     9    1
    15     9    10    1
    16    10    11   ar
    17    11    12   ar
    18    12    13   ar
    19    13    14   ar
    20    14    15    1
    21    14    16   ar
    22     4     5   ar
    23     5     6   ar
    24    25    26    2
    25    26    27    1
    26    27    19    1
    27    26    22    1
    28     6     1   ar
    29    16    10   ar
    30     7     8    1
