@<TRIPOS>MOLECULE
*****
 29 32 0 0 0
SMALL
GASTEIGER

@<TRIPOS>ATOM
      1 C          61.7426   89.7644   11.0355 C.3     1  UNL1        0.0749
      2 C          62.5164   89.5487   12.3023 C.3     1  UNL1        0.0444
      3 C          63.7101   90.4044   12.6069 C.ar    1  UNL1       -0.0101
      4 C          64.1300   91.4758   11.6446 C.ar    1  UNL1       -0.0091
      5 C          65.3238   92.3315   11.9492 C.ar    1  UNL1       -0.0032
      6 C          66.0975   92.1159   13.2160 C.ar    1  UNL1        0.0010
      7 C          65.6776   91.0445   14.1782 C.ar    1  UNL1        0.0142
      8 C          64.4839   90.1888   13.8737 C.ar    1  UNL1        0.0436
      9 C          63.3563   91.6914   10.3778 C.3     1  UNL1        0.0954
     10 N          62.1626   90.8357   10.0733 N.3     1  UNL1       -0.2934
     11 H          62.3502   90.3747    9.1829 H       1  UNL1        0.1236
     12 N          64.0639   89.1175   14.8359 N.pl3   1  UNL1       -0.3049
     13 C          63.3227   89.4825   16.0879 C.3     1  UNL1        0.1079
     14 C          62.9027   88.4111   17.0502 C.3     1  UNL1        0.0903
     15 N          63.2240   86.9748   16.7604 N.3     1  UNL1       -0.2946
     16 C          63.9652   86.6099   15.5084 C.3     1  UNL1        0.0903
     17 C          64.3852   87.6813   14.5462 C.3     1  UNL1        0.1079
     18 H          62.3358   86.4741   16.7332 H       1  UNL1        0.1233
     19 C          60.5489   88.9086   10.7309 C.3     1  UNL1        0.0886
     20 N          60.6435   87.8323    9.6904 N.3     1  UNL1       -0.2653
     21 C          59.4190   87.4120    8.9326 C.3     1  UNL1        0.0900
     22 C          61.9624   87.1763    9.4077 C.3     1  UNL1        0.1184
     23 C          63.2197   84.8139    8.0519 C.3     1  UNL1        0.0323
     24 C          63.0285   84.8107    9.5397 C.ar    1  UNL1       -0.0069
     25 C          63.4658   83.6263   10.3496 C.ar    1  UNL1       -0.0015
     26 C          63.2746   83.6231   11.8373 C.ar    1  UNL1        0.0203
     27 C          62.6459   84.8043   12.5152 C.ar    1  UNL1        0.0985
     28 N          62.2086   85.9887   11.7053 N.ar    1  UNL1       -0.2471
     29 C          62.3998   85.9919   10.2176 C.ar    1  UNL1        0.0712
@<TRIPOS>BOND
     1    23    24    1
     2    24    25   ar
     3    25    26   ar
     4    26    27   ar
     5    27    28   ar
     6    28    29   ar
     7    29    22    1
     8    22    20    1
     9    20    21    1
    10    20    19    1
    11     1    19    1
    12     1     2    1
    13     2     3    1
    14     3     4   ar
    15     4     5   ar
    16     5     6   ar
    17     6     7   ar
    18     7     8   ar
    19     8    12    1
    20    12    13    1
    21    13    14    1
    22    14    15    1
    23    15    16    1
    24    16    17    1
    25     4     9    1
    26     9    10    1
    27    29    24   ar
    28    10     1    1
    29     8     3   ar
    30    17    12    1
    31    15    18    1
    32    10    11    1
@<TRIPOS>MOLECULE
*****
 29 32 0 0 0
SMALL
GASTEIGER

@<TRIPOS>ATOM
      1 C          62.9135   90.4962   11.5614 C.3     1  UNL1        0.0749
      2 C          64.0841   91.4340   11.5466 C.3     1  UNL1        0.0444
      3 C          64.8144   91.7421   12.8200 C.ar    1  UNL1       -0.0101
      4 C          64.3741   91.1125   14.1083 C.ar    1  UNL1       -0.0091
      5 C          65.1045   91.4207   15.3817 C.ar    1  UNL1       -0.0032
      6 C          66.2750   92.3585   15.3669 C.ar    1  UNL1        0.0010
      7 C          66.7153   92.9882   14.0786 C.ar    1  UNL1        0.0142
      8 C          65.9850   92.6800   12.8052 C.ar    1  UNL1        0.0436
      9 C          63.2036   90.1746   14.1231 C.3     1  UNL1        0.0954
     10 N          62.4733   89.8665   12.8497 N.3     1  UNL1       -0.2934
     11 H          61.5013   90.1400   12.9941 H       1  UNL1        0.1236
     12 N          66.4252   93.3097   11.5169 N.pl3   1  UNL1       -0.3049
     13 C          67.3004   92.5447   10.5688 C.3     1  UNL1        0.1079
     14 C          67.7406   93.1743    9.2805 C.3     1  UNL1        0.0903
     15 N          67.3057   94.5691    8.9403 N.3     1  UNL1       -0.2946
     16 C          66.4306   95.3340    9.8884 C.3     1  UNL1        0.0903
     17 C          65.9903   94.7043   11.1767 C.3     1  UNL1        0.1079
     18 H          66.8021   94.5128    8.0551 H       1  UNL1        0.1233
     19 C          62.1832   90.1880   10.2879 C.3     1  UNL1        0.0886
     20 N          61.2959   88.9814   10.2054 N.3     1  UNL1       -0.2653
     21 C          59.9366   89.0052   10.8394 C.3     1  UNL1        0.0900
     22 C          61.7678   87.7510    9.4889 C.3     1  UNL1        0.1184
     23 C          62.6898   85.2813    8.0568 C.3     1  UNL1        0.0323
     24 C          62.7303   85.3386    9.5552 C.ar    1  UNL1       -0.0069
     25 C          63.2317   84.1612   10.3375 C.ar    1  UNL1       -0.0015
     26 C          63.2722   84.2185   11.8359 C.ar    1  UNL1        0.0203
     27 C          62.8112   85.4533   12.5519 C.ar    1  UNL1        0.0985
     28 N          62.3098   86.6308   11.7696 N.ar    1  UNL1       -0.2471
     29 C          62.2693   86.5734   10.2712 C.ar    1  UNL1        0.0712
@<TRIPOS>BOND
     1    23    24    1
     2    24    25   ar
     3    25    26   ar
     4    26    27   ar
     5    27    28   ar
     6    28    29   ar
     7    29    22    1
     8    22    20    1
     9    20    21    1
    10    20    19    1
    11     1    19    1
    12     1     2    1
    13     2     3    1
    14     3     4   ar
    15     4     5   ar
    16     5     6   ar
    17     6     7   ar
    18     7     8   ar
    19     8    12    1
    20    12    13    1
    21    13    14    1
    22    14    15    1
    23    15    16    1
    24    16    17    1
    25     4     9    1
    26     9    10    1
    27    29    24   ar
    28    10     1    1
    29     8     3   ar
    30    17    12    1
    31    15    18    1
    32    10    11    1
@<TRIPOS>MOLECULE
*****
 29 32 0 0 0
SMALL
GASTEIGER

@<TRIPOS>ATOM
      1 C          60.9250   87.1124   10.6059 C.3     1  UNL1        0.0749
      2 C          61.7185   86.3404   11.6181 C.3     1  UNL1        0.0444
      3 C          62.6440   85.2481   11.1708 C.ar    1  UNL1       -0.0101
      4 C          62.7760   84.9276    9.7114 C.ar    1  UNL1       -0.0091
      5 C          63.7016   83.8351    9.2642 C.ar    1  UNL1       -0.0032
      6 C          64.4950   83.0632   10.2764 C.ar    1  UNL1        0.0010
      7 C          64.3630   83.3837   11.7358 C.ar    1  UNL1        0.0142
      8 C          63.4375   84.4760   12.1830 C.ar    1  UNL1        0.0436
      9 C          61.9826   85.6996    8.6993 C.3     1  UNL1        0.0954
     10 N          61.0571   86.7919    9.1465 N.3     1  UNL1       -0.2934
     11 H          60.1254   86.5430    8.8142 H       1  UNL1        0.1236
     12 N          63.3054   84.7965   13.6424 N.pl3   1  UNL1       -0.3049
     13 C          64.1437   85.8814   14.2509 C.3     1  UNL1        0.1079
     14 C          64.0117   86.2018   15.7103 C.3     1  UNL1        0.0903
     15 N          63.0412   85.4374   16.5612 N.3     1  UNL1       -0.2946
     16 C          62.2029   84.3525   15.9527 C.3     1  UNL1        0.0903
     17 C          62.3350   84.0321   14.4933 C.3     1  UNL1        0.1079
     18 H          62.3960   86.1204   16.9581 H       1  UNL1        0.1233
     19 C          59.9994   88.2048   11.0531 C.3     1  UNL1        0.0886
     20 N          60.4812   89.6247   11.0974 N.3     1  UNL1       -0.2653
     21 C          59.5075   90.7398   11.3395 C.3     1  UNL1        0.0900
     22 C          61.9365   89.9294   10.8997 C.3     1  UNL1        0.1184
     23 C          64.2205   91.8529   10.6104 C.3     1  UNL1        0.0323
     24 C          63.9455   91.2092   11.9371 C.ar    1  UNL1       -0.0069
     25 C          64.8124   91.5273   13.1191 C.ar    1  UNL1       -0.0015
     26 C          64.5374   90.8837   14.4458 C.ar    1  UNL1        0.0203
     27 C          63.3954   89.9220   14.5905 C.ar    1  UNL1        0.0985
     28 N          62.5285   89.6039   13.4084 N.ar    1  UNL1       -0.2471
     29 C          62.8035   90.2475   12.0818 C.ar    1  UNL1        0.0712
@<TRIPOS>BOND
     1    23    24    1
     2    24    25   ar
     3    25    26   ar
     4    26    27   ar
     5    27    28   ar
     6    28    29   ar
     7    29    22    1
     8    22    20    1
     9    20    21    1
    10    20    19    1
    11     1    19    1
    12     1     2    1
    13     2     3    1
    14     3     4   ar
    15     4     5   ar
    16     5     6   ar
    17     6     7   ar
    18     7     8   ar
    19     8    12    1
    20    12    13    1
    21    13    14    1
    22    14    15    1
    23    15    16    1
    24    16    17    1
    25     4     9    1
    26     9    10    1
    27    29    24   ar
    28    10     1    1
    29     8     3   ar
    30    17    12    1
    31    15    18    1
    32    10    11    1
@<TRIPOS>MOLECULE
*****
 29 32 0 0 0
SMALL
GASTEIGER

@<TRIPOS>ATOM
      1 C          63.1263   90.1543   11.7721 C.3     1  UNL1        0.0749
      2 C          64.2143   91.1850   11.7118 C.3     1  UNL1        0.0444
      3 C          64.8549   91.6742   12.9768 C.ar    1  UNL1       -0.0101
      4 C          64.4075   91.1325   14.3022 C.ar    1  UNL1       -0.0091
      5 C          65.0482   91.6217   15.5672 C.ar    1  UNL1       -0.0032
      6 C          66.1362   92.6525   15.5069 C.ar    1  UNL1        0.0010
      7 C          66.5836   93.1941   14.1816 C.ar    1  UNL1        0.0142
      8 C          65.9430   92.7050   12.9166 C.ar    1  UNL1        0.0436
      9 C          63.3195   90.1017   14.3624 C.3     1  UNL1        0.0954
     10 N          62.6789   89.6126   13.0974 N.3     1  UNL1       -0.2934
     11 H          61.6818   89.8127   13.1759 H       1  UNL1        0.1236
     12 N          66.3904   93.2466   11.5913 N.pl3   1  UNL1       -0.3049
     13 C          67.3349   92.4537   10.7372 C.3     1  UNL1        0.1079
     14 C          67.7823   92.9954    9.4119 C.3     1  UNL1        0.0903
     15 N          67.2852   94.3299    8.9407 N.3     1  UNL1       -0.2946
     16 C          66.3408   95.1228    9.7947 C.3     1  UNL1        0.0903
     17 C          65.8934   94.5811   11.1200 C.3     1  UNL1        0.1079
     18 H          66.8141   94.1709    8.0501 H       1  UNL1        0.1233
     19 C          62.4856   89.6651   10.5070 C.3     1  UNL1        0.0886
     20 N          61.0573   89.2074   10.5181 N.3     1  UNL1       -0.2653
     21 C          59.9466   90.2141   10.4628 C.3     1  UNL1        0.0900
     22 C          60.7394   87.7429   10.5845 C.3     1  UNL1        0.1184
     23 C          58.9811   87.1849    8.2188 C.3     1  UNL1        0.0323
     24 C          60.3336   86.5438    8.3157 C.ar    1  UNL1       -0.0069
     25 C          60.8071   85.6236    7.2298 C.ar    1  UNL1       -0.0015
     26 C          62.1597   84.9825    7.3268 C.ar    1  UNL1        0.0203
     27 C          63.0388   85.2614    8.5096 C.ar    1  UNL1        0.0985
     28 N          62.5654   86.1816    9.5955 N.ar    1  UNL1       -0.2471
     29 C          61.2128   86.8228    9.4986 C.ar    1  UNL1        0.0712
@<TRIPOS>BOND
     1    23    24    1
     2    24    25   ar
     3    25    26   ar
     4    26    27   ar
     5    27    28   ar
     6    28    29   ar
     7    29    22    1
     8    22    20    1
     9    20    21    1
    10    20    19    1
    11     1    19    1
    12     1     2    1
    13     2     3    1
    14     3     4   ar
    15     4     5   ar
    16     5     6   ar
    17     6     7   ar
    18     7     8   ar
    19     8    12    1
    20    12    13    1
    21    13    14    1
    22    14    15    1
    23    15    16    1
    24    16    17    1
    25     4     9    1
    26     9    10    1
    27    29    24   ar
    28    10     1    1
    29     8     3   ar
    30    17    12    1
    31    15    18    1
    32    10    11    1
@<TRIPOS>MOLECULE
*****
 29 32 0 0 0
SMALL
GASTEIGER

@<TRIPOS>ATOM
      1 C          63.6678   86.6703   13.6213 C.3     1  UNL1        0.0749
      2 C          63.8587   88.1568   13.5596 C.3     1  UNL1        0.0444
      3 C          63.3130   88.9355   12.3996 C.ar    1  UNL1       -0.0101
      4 C          62.5765   88.2277   11.3011 C.ar    1  UNL1       -0.0091
      5 C          62.0308   89.0065   10.1410 C.ar    1  UNL1       -0.0032
      6 C          62.2216   90.4930   10.0794 C.ar    1  UNL1        0.0010
      7 C          62.9582   91.2008   11.1778 C.ar    1  UNL1        0.0142
      8 C          63.5039   90.4221   12.3379 C.ar    1  UNL1        0.0436
      9 C          62.3856   86.7412   11.3628 C.3     1  UNL1        0.0954
     10 N          62.9312   85.9625   12.5229 N.3     1  UNL1       -0.2934
     11 H          63.5729   85.2699   12.1368 H       1  UNL1        0.1236
     12 N          64.2404   91.1299   13.4363 N.pl3   1  UNL1       -0.3049
     13 C          63.8042   90.9614   14.8616 C.3     1  UNL1        0.1079
     14 C          64.5407   91.6692   15.9600 C.3     1  UNL1        0.0903
     15 N          65.7135   92.5455   15.6332 N.3     1  UNL1       -0.2946
     16 C          66.1497   92.7139   14.2079 C.3     1  UNL1        0.0903
     17 C          65.4131   92.0061   13.1095 C.3     1  UNL1        0.1079
     18 H          66.5129   92.1699   16.1433 H       1  UNL1        0.1233
     19 C          64.2135   85.8915   14.7814 C.3     1  UNL1        0.0886
     20 N          63.5179   84.6447   15.2413 N.3     1  UNL1       -0.2653
     21 C          62.3014   84.7427   16.1135 C.3     1  UNL1        0.0900
     22 C          64.0388   83.2998   14.8291 C.3     1  UNL1        0.1184
     23 C          62.0063   81.1869   14.1930 C.3     1  UNL1        0.0323
     24 C          62.8476   81.7723   13.0977 C.ar    1  UNL1       -0.0069
     25 C          62.6727   81.3012   11.6844 C.ar    1  UNL1       -0.0015
     26 C          63.5139   81.8866   10.5892 C.ar    1  UNL1        0.0203
     27 C          64.5302   82.9430   10.9072 C.ar    1  UNL1        0.0985
     28 N          64.7051   83.4141   12.3205 N.ar    1  UNL1       -0.2471
     29 C          63.8638   82.8287   13.4158 C.ar    1  UNL1        0.0712
@<TRIPOS>BOND
     1    23    24    1
     2    24    25   ar
     3    25    26   ar
     4    26    27   ar
     5    27    28   ar
     6    28    29   ar
     7    29    22    1
     8    22    20    1
     9    20    21    1
    10    20    19    1
    11     1    19    1
    12     1     2    1
    13     2     3    1
    14     3     4   ar
    15     4     5   ar
    16     5     6   ar
    17     6     7   ar
    18     7     8   ar
    19     8    12    1
    20    12    13    1
    21    13    14    1
    22    14    15    1
    23    15    16    1
    24    16    17    1
    25     4     9    1
    26     9    10    1
    27    29    24   ar
    28    10     1    1
    29     8     3   ar
    30    17    12    1
    31    15    18    1
    32    10    11    1
@<TRIPOS>MOLECULE
*****
 29 32 0 0 0
SMALL
GASTEIGER

@<TRIPOS>ATOM
      1 C          64.2550   86.0191   14.6592 C.3     1  UNL1        0.0749
      2 C          63.6771   85.5536   13.3557 C.3     1  UNL1        0.0444
      3 C          63.3936   84.0968   13.1386 C.ar    1  UNL1       -0.0101
      4 C          63.6881   83.1054   14.2250 C.ar    1  UNL1       -0.0091
      5 C          63.4046   81.6484   14.0079 C.ar    1  UNL1       -0.0032
      6 C          62.8267   81.1830   12.7043 C.ar    1  UNL1        0.0010
      7 C          62.5322   82.1744   11.6178 C.ar    1  UNL1        0.0142
      8 C          62.8157   83.6312   11.8349 C.ar    1  UNL1        0.0436
      9 C          64.2660   83.5708   15.5286 C.3     1  UNL1        0.0954
     10 N          64.5494   85.0277   15.7457 N.3     1  UNL1       -0.2934
     11 H          65.5448   85.1061   15.9540 H       1  UNL1        0.1236
     12 N          62.5212   84.6226   10.7485 N.pl3   1  UNL1       -0.3049
     13 C          61.4948   85.6941   10.9689 C.3     1  UNL1        0.1079
     14 C          61.2004   86.6855    9.8824 C.3     1  UNL1        0.0903
     15 N          61.9324   86.6054    8.5755 N.3     1  UNL1       -0.2946
     16 C          62.9587   85.5340    8.3552 C.3     1  UNL1        0.0903
     17 C          63.2532   84.5426    9.4416 C.3     1  UNL1        0.1079
     18 H          62.4077   87.4990    8.4490 H       1  UNL1        0.1233
     19 C          64.5385   87.4760   14.8764 C.3     1  UNL1        0.0886
     20 N          63.6136   88.3024   15.7199 N.3     1  UNL1       -0.2653
     21 C          62.9705   87.7033   16.9355 C.3     1  UNL1        0.0900
     22 C          63.3318   89.7280   15.3480 C.3     1  UNL1        0.1184
     23 C          65.4500   91.4749   14.1390 C.3     1  UNL1        0.0323
     24 C          64.3030   90.9964   13.2991 C.ar    1  UNL1       -0.0069
     25 C          64.2151   91.3913   11.8547 C.ar    1  UNL1       -0.0015
     26 C          63.0682   90.9127   11.0148 C.ar    1  UNL1        0.0203
     27 C          62.0091   90.0392   11.6192 C.ar    1  UNL1        0.0985
     28 N          62.0970   89.6444   13.0636 N.ar    1  UNL1       -0.2471
     29 C          63.2439   90.1229   13.9035 C.ar    1  UNL1        0.0712
@<TRIPOS>BOND
     1    23    24    1
     2    24    25   ar
     3    25    26   ar
     4    26    27   ar
     5    27    28   ar
     6    28    29   ar
     7    29    22    1
     8    22    20    1
     9    20    21    1
    10    20    19    1
    11     1    19    1
    12     1     2    1
    13     2     3    1
    14     3     4   ar
    15     4     5   ar
    16     5     6   ar
    17     6     7   ar
    18     7     8   ar
    19     8    12    1
    20    12    13    1
    21    13    14    1
    22    14    15    1
    23    15    16    1
    24    16    17    1
    25     4     9    1
    26     9    10    1
    27    29    24   ar
    28    10     1    1
    29     8     3   ar
    30    17    12    1
    31    15    18    1
    32    10    11    1
@<TRIPOS>MOLECULE
*****
 29 32 0 0 0
SMALL
GASTEIGER

@<TRIPOS>ATOM
      1 C          62.9950   90.5629   12.1106 C.3     1  UNL1        0.0749
      2 C          64.1706   91.4777   11.9343 C.3     1  UNL1        0.0444
      3 C          65.0042   91.8645   13.1198 C.ar    1  UNL1       -0.0101
      4 C          64.6622   91.3366   14.4815 C.ar    1  UNL1       -0.0091
      5 C          65.4959   91.7234   15.6670 C.ar    1  UNL1       -0.0032
      6 C          66.6715   92.6383   15.4908 C.ar    1  UNL1        0.0010
      7 C          67.0134   93.1663   14.1291 C.ar    1  UNL1        0.0142
      8 C          66.1798   92.7794   12.9436 C.ar    1  UNL1        0.0436
      9 C          63.4867   90.4217   14.6578 C.3     1  UNL1        0.0954
     10 N          62.6531   90.0349   13.4723 N.3     1  UNL1       -0.2934
     11 H          61.6988   90.3342   13.6731 H       1  UNL1        0.1236
     12 N          66.5217   93.3074   11.5819 N.pl3   1  UNL1       -0.3049
     13 C          65.9949   94.6407   11.1404 C.3     1  UNL1        0.1079
     14 C          66.3368   95.1687    9.7786 C.3     1  UNL1        0.0903
     15 N          67.2056   94.3634    8.8584 N.3     1  UNL1       -0.2946
     16 C          67.7325   93.0302    9.2999 C.3     1  UNL1        0.0903
     17 C          67.3905   92.5022   10.6617 C.3     1  UNL1        0.1079
     18 H          68.0162   94.9418    8.6375 H       1  UNL1        0.1233
     19 C          62.1613   90.1760   10.9251 C.3     1  UNL1        0.0886
     20 N          60.7508   89.7051   11.1217 N.3     1  UNL1       -0.2653
     21 C          59.6402   90.7031   11.2664 C.3     1  UNL1        0.0900
     22 C          60.4508   88.2364   11.1735 C.3     1  UNL1        0.1184
     23 C          62.4058   86.0104   10.7015 C.3     1  UNL1        0.0323
     24 C          61.3646   86.3257    9.6688 C.ar    1  UNL1       -0.0069
     25 C          61.3009   85.5280    8.4001 C.ar    1  UNL1       -0.0015
     26 C          60.2597   85.8432    7.3674 C.ar    1  UNL1        0.0203
     27 C          59.2822   86.9562    7.6034 C.ar    1  UNL1        0.0985
     28 N          59.3459   87.7539    8.8721 N.ar    1  UNL1       -0.2471
     29 C          60.3871   87.4386    9.9048 C.ar    1  UNL1        0.0712
@<TRIPOS>BOND
     1    23    24    1
     2    24    25   ar
     3    25    26   ar
     4    26    27   ar
     5    27    28   ar
     6    28    29   ar
     7    29    22    1
     8    22    20    1
     9    20    21    1
    10    20    19    1
    11     1    19    1
    12     1     2    1
    13     2     3    1
    14     3     4   ar
    15     4     5   ar
    16     5     6   ar
    17     6     7   ar
    18     7     8   ar
    19     8    12    1
    20    12    13    1
    21    13    14    1
    22    14    15    1
    23    15    16    1
    24    16    17    1
    25     4     9    1
    26     9    10    1
    27    29    24   ar
    28    10     1    1
    29     8     3   ar
    30    17    12    1
    31    15    18    1
    32    10    11    1
@<TRIPOS>MOLECULE
*****
 29 32 0 0 0
SMALL
GASTEIGER

@<TRIPOS>ATOM
      1 C          64.2590   86.3116   14.6171 C.3     1  UNL1        0.0749
      2 C          63.6655   85.7764   13.3478 C.3     1  UNL1        0.0444
      3 C          63.3452   84.3160   13.2271 C.ar    1  UNL1       -0.0101
      4 C          63.6183   83.3908   14.3758 C.ar    1  UNL1       -0.0091
      5 C          63.2979   81.9304   14.2552 C.ar    1  UNL1       -0.0032
      6 C          62.7044   81.3951   12.9858 C.ar    1  UNL1        0.0010
      7 C          62.4313   82.3203   11.8371 C.ar    1  UNL1        0.0142
      8 C          62.7516   83.7807   11.9578 C.ar    1  UNL1        0.0436
      9 C          64.2118   83.9261   15.6452 C.3     1  UNL1        0.0954
     10 N          64.5322   85.3865   15.7658 N.3     1  UNL1       -0.2934
     11 H          65.5299   85.4534   15.9670 H       1  UNL1        0.1236
     12 N          62.4785   84.7058   10.8091 N.pl3   1  UNL1       -0.3049
     13 C          63.2570   84.5687    9.5342 C.3     1  UNL1        0.1079
     14 C          62.9838   85.4939    8.3855 C.3     1  UNL1        0.0903
     15 N          61.9322   86.5561    8.5117 N.3     1  UNL1       -0.2946
     16 C          61.1538   86.6931    9.7865 C.3     1  UNL1        0.0903
     17 C          61.4269   85.7680   10.9352 C.3     1  UNL1        0.1079
     18 H          61.2535   86.3883    7.7689 H       1  UNL1        0.1233
     19 C          64.5794   87.7721   14.7378 C.3     1  UNL1        0.0886
     20 N          63.5771   88.7127   15.3383 N.3     1  UNL1       -0.2653
     21 C          63.0588   88.4711   16.7250 C.3     1  UNL1        0.0900
     22 C          63.0931   89.8949   14.5521 C.3     1  UNL1        0.1184
     23 C          63.1393   90.5356   11.6216 C.3     1  UNL1        0.0323
     24 C          64.0994   91.2143   12.5530 C.ar    1  UNL1       -0.0069
     25 C          65.0827   92.2134   12.0192 C.ar    1  UNL1       -0.0015
     26 C          66.0428   92.8922   12.9505 C.ar    1  UNL1        0.0203
     27 C          66.0197   92.5718   14.4157 C.ar    1  UNL1        0.0985
     28 N          65.0365   91.5727   14.9495 N.ar    1  UNL1       -0.2471
     29 C          64.0763   90.8940   14.0182 C.ar    1  UNL1        0.0712
@<TRIPOS>BOND
     1    23    24    1
     2    24    25   ar
     3    25    26   ar
     4    26    27   ar
     5    27    28   ar
     6    28    29   ar
     7    29    22    1
     8    22    20    1
     9    20    21    1
    10    20    19    1
    11     1    19    1
    12     1     2    1
    13     2     3    1
    14     3     4   ar
    15     4     5   ar
    16     5     6   ar
    17     6     7   ar
    18     7     8   ar
    19     8    12    1
    20    12    13    1
    21    13    14    1
    22    14    15    1
    23    15    16    1
    24    16    17    1
    25     4     9    1
    26     9    10    1
    27    29    24   ar
    28    10     1    1
    29     8     3   ar
    30    17    12    1
    31    15    18    1
    32    10    11    1
@<TRIPOS>MOLECULE
*****
 29 32 0 0 0
SMALL
GASTEIGER

@<TRIPOS>ATOM
      1 C          63.0394   90.6036   12.6870 C.3     1  UNL1        0.0749
      2 C          64.2281   91.4786   12.4197 C.3     1  UNL1        0.0444
      3 C          65.0962   91.9320   13.5558 C.ar    1  UNL1       -0.0101
      4 C          64.7758   91.5103   14.9592 C.ar    1  UNL1       -0.0091
      5 C          65.6440   91.9637   16.0953 C.ar    1  UNL1       -0.0032
      6 C          66.8326   92.8387   15.8280 C.ar    1  UNL1        0.0010
      7 C          67.1531   93.2604   14.4246 C.ar    1  UNL1        0.0142
      8 C          66.2849   92.8070   13.2885 C.ar    1  UNL1        0.0436
      9 C          63.5871   90.6353   15.2265 C.3     1  UNL1        0.0954
     10 N          62.7190   90.1820   14.0904 N.3     1  UNL1       -0.2934
     11 H          61.7756   90.5148   14.2897 H       1  UNL1        0.1236
     12 N          66.6054   93.2287   11.8851 N.pl3   1  UNL1       -0.3049
     13 C          67.4083   92.3262   10.9957 C.3     1  UNL1        0.1079
     14 C          67.7288   92.7479    9.5923 C.3     1  UNL1        0.0903
     15 N          67.2463   94.0719    9.0783 N.3     1  UNL1       -0.2946
     16 C          66.4434   94.9743    9.9677 C.3     1  UNL1        0.0903
     17 C          66.1230   94.5527   11.3711 C.3     1  UNL1        0.1079
     18 H          66.6706   93.8777    8.2591 H       1  UNL1        0.1233
     19 C          62.1712   90.1502   11.5509 C.3     1  UNL1        0.0886
     20 N          61.6314   88.7509   11.5317 N.3     1  UNL1       -0.2653
     21 C          60.1705   88.5072   11.7692 C.3     1  UNL1        0.0900
     22 C          62.5525   87.5952   11.2748 C.3     1  UNL1        0.1184
     23 C          62.2853   84.6073   11.3125 C.3     1  UNL1        0.0323
     24 C          62.9722   85.3132   12.4438 C.ar    1  UNL1       -0.0069
     25 C          63.5255   84.5252   13.5940 C.ar    1  UNL1       -0.0015
     26 C          64.2124   85.2311   14.7253 C.ar    1  UNL1        0.0203
     27 C          64.3460   86.7250   14.7065 C.ar    1  UNL1        0.0985
     28 N          63.7927   87.5130   13.5564 N.ar    1  UNL1       -0.2471
     29 C          63.1058   86.8071   12.4250 C.ar    1  UNL1        0.0712
@<TRIPOS>BOND
     1    23    24    1
     2    24    25   ar
     3    25    26   ar
     4    26    27   ar
     5    27    28   ar
     6    28    29   ar
     7    29    22    1
     8    22    20    1
     9    20    21    1
    10    20    19    1
    11     1    19    1
    12     1     2    1
    13     2     3    1
    14     3     4   ar
    15     4     5   ar
    16     5     6   ar
    17     6     7   ar
    18     7     8   ar
    19     8    12    1
    20    12    13    1
    21    13    14    1
    22    14    15    1
    23    15    16    1
    24    16    17    1
    25     4     9    1
    26     9    10    1
    27    29    24   ar
    28    10     1    1
    29     8     3   ar
    30    17    12    1
    31    15    18    1
    32    10    11    1
