@<TRIPOS>MOLECULE
*****
 27 29 0 0 0
SMALL
GASTEIGER

@<TRIPOS>ATOM
      1 N          64.1412   88.6835   14.9738 N.am    1  UNL1       -0.3004
      2 C          64.0328   87.3908   14.2205 C.2     1  UNL1        0.2252
      3 O          63.4094   87.3676   12.8565 O.2     1  UNL1       -0.2750
      4 H          64.5503   88.6987   15.8691 H       1  UNL1        0.1497
      5 C          63.6261   89.9529   14.3628 C.3     1  UNL1        0.1165
      6 C          66.3985   92.7430   14.8916 C.ar    1  UNL1        0.1415
      7 C          65.4568   91.6095   15.1718 C.ar    1  UNL1        0.0345
      8 C          64.5678   91.0864   14.0827 C.ar    1  UNL1        0.0035
      9 C          64.6206   91.6966   12.7135 C.ar    1  UNL1        0.0345
     10 C          65.5623   92.8301   12.4334 C.ar    1  UNL1        0.1415
     11 C          66.4512   93.3532   13.5224 C.ar    1  UNL1        0.0737
     12 C          68.7564   93.4396   15.7316 C.3     1  UNL1        0.2525
     13 O          67.2874   93.2661   15.9808 O.3     1  UNL1       -0.4713
     14 O          65.6151   93.4404   11.0642 O.3     1  UNL1       -0.4713
     15 C          66.3511   94.7289   10.8452 C.3     1  UNL1        0.2525
     16 C          64.5478   86.1213   14.8315 C.3     1  UNL1        0.1154
     17 C          63.6120   84.9763   15.0824 C.3     1  UNL1        0.1377
     18 C          63.3927   85.6505   16.4043 C.3     1  UNL1        0.0335
     19 C          64.0270   84.5414   13.7081 C.3     1  UNL1        0.0613
     20 C          63.3017   83.2685   13.3859 C.3     1  UNL1        0.1290
     21 C          62.5102   82.0071   13.2057 C.3     1  UNL1        0.0305
     22 C          62.6276   81.2237   11.9320 C.3     1  UNL1        0.0025
     23 C          63.5364   81.7015   10.8386 C.3     1  UNL1        0.0002
     24 C          64.3279   82.9629   11.0188 C.3     1  UNL1        0.0025
     25 C          64.2106   83.7463   12.2925 C.3     1  UNL1        0.0305
     26 O          62.4385   82.9166   14.5612 O.3     1  UNL1       -0.2256
     27 O          62.6303   83.9721   15.6097 O.3     1  UNL1       -0.2251
@<TRIPOS>BOND
     1    12    13    1
     2    13     6    1
     3     6     7   ar
     4     7     8   ar
     5     8     5    1
     6     5     1    1
     7     1     2   am
     8     2     3    2
     9     2    16    1
    10    16    17    1
    11    17    18    1
    12    17    19    1
    13    19    20    1
    14    20    21    1
    15    21    22    1
    16    22    23    1
    17    23    24    1
    18    24    25    1
    19    20    26    1
    20    26    27    1
    21     8     9   ar
    22     9    10   ar
    23    10    14    1
    24    14    15    1
    25    10    11   ar
    26    11     6   ar
    27    27    17    1
    28    25    20    1
    29     1     4    1
@<TRIPOS>MOLECULE
*****
 27 29 0 0 0
SMALL
GASTEIGER

@<TRIPOS>ATOM
      1 N          64.3821   88.8350   15.0489 N.am    1  UNL1       -0.3004
      2 C          64.1658   87.5445   14.3156 C.2     1  UNL1        0.2252
      3 O          63.4856   87.5464   12.9787 O.2     1  UNL1       -0.2750
      4 H          64.8285   88.8338   15.9264 H       1  UNL1        0.1497
      5 C          63.9181   90.1274   14.4453 C.3     1  UNL1        0.1165
      6 C          65.5800   92.7050   11.9266 C.ar    1  UNL1        0.1415
      7 C          64.5861   91.7655   12.5425 C.ar    1  UNL1        0.0345
      8 C          64.9120   91.0670   13.8293 C.ar    1  UNL1        0.0035
      9 C          66.2318   91.3080   14.5002 C.ar    1  UNL1        0.0345
     10 C          67.2257   92.2475   13.8841 C.ar    1  UNL1        0.1415
     11 C          66.8998   92.9460   12.5974 C.ar    1  UNL1        0.0737
     12 C          66.0803   94.5720   10.1903 C.3     1  UNL1        0.2525
     13 O          65.2541   93.4035   10.6397 O.3     1  UNL1       -0.4713
     14 O          68.5455   92.4885   14.5549 O.3     1  UNL1       -0.4713
     15 C          68.6424   93.4627   15.6914 C.3     1  UNL1        0.2525
     16 C          64.6297   86.2519   14.9192 C.3     1  UNL1        0.1154
     17 C          63.6442   85.1539   15.1890 C.3     1  UNL1        0.1377
     18 C          63.4382   85.8724   16.4895 C.3     1  UNL1        0.0335
     19 C          64.0563   84.6649   13.8322 C.3     1  UNL1        0.0613
     20 C          63.2823   83.4147   13.5352 C.3     1  UNL1        0.1290
     21 C          62.4410   82.1827   13.3789 C.3     1  UNL1        0.0305
     22 C          62.5400   81.3607   12.1282 C.3     1  UNL1        0.0025
     23 C          63.4803   81.7705   11.0338 C.3     1  UNL1        0.0002
     24 C          64.3216   83.0025   11.1900 C.3     1  UNL1        0.0025
     25 C          64.2226   83.8246   12.4407 C.3     1  UNL1        0.0305
     26 O          62.3919   83.1311   14.7086 O.3     1  UNL1       -0.2256
     27 O          62.6156   84.2059   15.7308 O.3     1  UNL1       -0.2251
@<TRIPOS>BOND
     1    12    13    1
     2    13     6    1
     3     6     7   ar
     4     7     8   ar
     5     8     5    1
     6     5     1    1
     7     1     2   am
     8     2     3    2
     9     2    16    1
    10    16    17    1
    11    17    18    1
    12    17    19    1
    13    19    20    1
    14    20    21    1
    15    21    22    1
    16    22    23    1
    17    23    24    1
    18    24    25    1
    19    20    26    1
    20    26    27    1
    21     8     9   ar
    22     9    10   ar
    23    10    14    1
    24    14    15    1
    25    10    11   ar
    26    11     6   ar
    27    27    17    1
    28    25    20    1
    29     1     4    1
@<TRIPOS>MOLECULE
*****
 27 29 0 0 0
SMALL
GASTEIGER

@<TRIPOS>ATOM
      1 N          64.2060   85.4757   14.1961 N.am    1  UNL1       -0.3004
      2 C          63.0438   84.6040   14.5694 C.2     1  UNL1        0.2252
      3 O          62.1217   85.0175   15.6779 O.2     1  UNL1       -0.2750
      4 H          64.8112   85.2043   13.4685 H       1  UNL1        0.1497
      5 C          64.4462   86.7609   14.9313 C.3     1  UNL1        0.1165
      6 C          63.2467   89.4113   12.2319 C.ar    1  UNL1        0.1415
      7 C          63.5261   88.0995   12.9036 C.ar    1  UNL1        0.0345
      8 C          64.1668   88.0727   14.2596 C.ar    1  UNL1        0.0035
      9 C          64.5281   89.3576   14.9440 C.ar    1  UNL1        0.0345
     10 C          64.2487   90.6694   14.2722 C.ar    1  UNL1        0.1415
     11 C          63.6080   90.6962   12.9163 C.ar    1  UNL1        0.0737
     12 C          61.3736   90.2614   10.6447 C.3     1  UNL1        0.2525
     13 O          62.6060   89.4380   10.8759 O.3     1  UNL1       -0.4713
     14 O          64.6101   91.9544   14.9565 O.3     1  UNL1       -0.4713
     15 C          66.0491   92.3592   15.0804 C.3     1  UNL1        0.2525
     16 C          62.8036   83.3187   13.8342 C.3     1  UNL1        0.1154
     17 C          63.5144   83.0505   12.5408 C.3     1  UNL1        0.1377
     18 C          64.2227   81.9909   13.3316 C.3     1  UNL1        0.0335
     19 C          62.6575   84.1663   12.0205 C.3     1  UNL1        0.0613
     20 C          62.9868   84.3662   10.5707 C.3     1  UNL1        0.1290
     21 C          63.4196   84.4492    9.1369 C.3     1  UNL1        0.0305
     22 C          62.7977   85.4632    8.2233 C.3     1  UNL1        0.0025
     23 C          61.7429   86.3943    8.7433 C.3     1  UNL1        0.0002
     24 C          61.3100   86.3114   10.1771 C.3     1  UNL1        0.0025
     25 C          61.9320   85.2973   11.0908 C.3     1  UNL1        0.0305
     26 O          64.0472   83.3740   10.1951 O.3     1  UNL1       -0.2256
     27 O          64.3733   82.5608   11.4128 O.3     1  UNL1       -0.2251
@<TRIPOS>BOND
     1    12    13    1
     2    13     6    1
     3     6     7   ar
     4     7     8   ar
     5     8     5    1
     6     5     1    1
     7     1     2   am
     8     2     3    2
     9     2    16    1
    10    16    17    1
    11    17    18    1
    12    17    19    1
    13    19    20    1
    14    20    21    1
    15    21    22    1
    16    22    23    1
    17    23    24    1
    18    24    25    1
    19    20    26    1
    20    26    27    1
    21     8     9   ar
    22     9    10   ar
    23    10    14    1
    24    14    15    1
    25    10    11   ar
    26    11     6   ar
    27    27    17    1
    28    25    20    1
    29     1     4    1
@<TRIPOS>MOLECULE
*****
 27 29 0 0 0
SMALL
GASTEIGER

@<TRIPOS>ATOM
      1 N          62.6441   90.3335   12.6460 N.am    1  UNL1       -0.3004
      2 C          64.0203   90.9184   12.7648 C.2     1  UNL1        0.2252
      3 O          64.6050   91.6977   11.6244 O.2     1  UNL1       -0.2750
      4 H          62.2603   89.8220   13.3946 H       1  UNL1        0.1497
      5 C          61.8527   90.5279   11.3867 C.3     1  UNL1        0.1165
      6 C          61.8207   86.8424    9.9152 C.ar    1  UNL1        0.1415
      7 C          62.1670   88.0230   10.7732 C.ar    1  UNL1        0.0345
      8 C          61.5064   89.3473   10.5287 C.ar    1  UNL1        0.0035
      9 C          60.4995   89.4910    9.4262 C.ar    1  UNL1        0.0345
     10 C          60.1533   88.3103    8.5682 C.ar    1  UNL1        0.1415
     11 C          60.8138   86.9861    8.8127 C.ar    1  UNL1        0.0737
     12 C          62.4400   84.9001   11.5259 C.3     1  UNL1        0.2525
     13 O          62.4814   85.5180   10.1597 O.3     1  UNL1       -0.4713
     14 O          59.1464   88.4540    7.4657 O.3     1  UNL1       -0.4713
     15 C          59.2831   89.5631    6.4650 C.3     1  UNL1        0.2525
     16 C          64.8117   90.7239   14.0242 C.3     1  UNL1        0.1154
     17 C          64.1103   90.3838   15.3057 C.3     1  UNL1        0.1377
     18 C          64.0735   91.8711   15.4969 C.3     1  UNL1        0.0335
     19 C          64.2937   88.9676   14.8466 C.3     1  UNL1        0.0613
     20 C          63.6980   88.0630   15.8844 C.3     1  UNL1        0.1290
     21 C          63.0651   87.2884   17.0022 C.3     1  UNL1        0.0305
     22 C          63.0276   85.7899   16.9488 C.3     1  UNL1        0.0025
     23 C          63.6230   85.0659   15.7778 C.3     1  UNL1        0.0002
     24 C          64.2558   85.8405   14.6600 C.3     1  UNL1        0.0025
     25 C          64.2933   87.3391   14.7133 C.3     1  UNL1        0.0305
     26 O          63.1463   88.9202   16.9849 O.3     1  UNL1       -0.2256
     27 O          63.4012   90.3546   16.6272 O.3     1  UNL1       -0.2251
@<TRIPOS>BOND
     1    12    13    1
     2    13     6    1
     3     6     7   ar
     4     7     8   ar
     5     8     5    1
     6     5     1    1
     7     1     2   am
     8     2     3    2
     9     2    16    1
    10    16    17    1
    11    17    18    1
    12    17    19    1
    13    19    20    1
    14    20    21    1
    15    21    22    1
    16    22    23    1
    17    23    24    1
    18    24    25    1
    19    20    26    1
    20    26    27    1
    21     8     9   ar
    22     9    10   ar
    23    10    14    1
    24    14    15    1
    25    10    11   ar
    26    11     6   ar
    27    27    17    1
    28    25    20    1
    29     1     4    1
@<TRIPOS>MOLECULE
*****
 27 29 0 0 0
SMALL
GASTEIGER

@<TRIPOS>ATOM
      1 N          62.8109   90.3413   12.5942 N.am    1  UNL1       -0.3004
      2 C          64.1143   91.0505   12.8144 C.2     1  UNL1        0.2252
      3 O          64.6605   91.9617   11.7557 O.2     1  UNL1       -0.2750
      4 H          62.4523   89.7432   13.2891 H       1  UNL1        0.1497
      5 C          62.0539   90.5435   11.3151 C.3     1  UNL1        0.1165
      6 C          60.1103   88.3525    8.6371 C.ar    1  UNL1        0.1415
      7 C          60.5809   89.5386    9.4256 C.ar    1  UNL1        0.0345
      8 C          61.5834   89.3574   10.5266 C.ar    1  UNL1        0.0035
      9 C          62.1154   87.9902   10.8390 C.ar    1  UNL1        0.0345
     10 C          61.6447   86.8041   10.0504 C.ar    1  UNL1        0.1415
     11 C          60.6423   86.9853    8.9495 C.ar    1  UNL1        0.0737
     12 C          59.3319   89.5769    6.4818 C.3     1  UNL1        0.2525
     13 O          59.1078   88.5337    7.5361 O.3     1  UNL1       -0.4713
     14 O          62.1767   85.4369   10.3629 O.3     1  UNL1       -0.4713
     15 C          62.4624   85.0499   11.7837 C.3     1  UNL1        0.2525
     16 C          64.8713   90.8483   14.0936 C.3     1  UNL1        0.1154
     17 C          64.1311   90.5533   15.3644 C.3     1  UNL1        0.1377
     18 C          64.1123   92.0457   15.5149 C.3     1  UNL1        0.0335
     19 C          64.3046   89.1227   14.9483 C.3     1  UNL1        0.0613
     20 C          63.6677   88.2554   15.9935 C.3     1  UNL1        0.1290
     21 C          62.9936   87.5208   17.1142 C.3     1  UNL1        0.0305
     22 C          62.9343   86.0221   17.0998 C.3     1  UNL1        0.0025
     23 C          63.5490   85.2580   15.9648 C.3     1  UNL1        0.0002
     24 C          64.2231   85.9926   14.8441 C.3     1  UNL1        0.0025
     25 C          64.2824   87.4913   14.8585 C.3     1  UNL1        0.0305
     26 O          63.1006   89.1501   17.0556 O.3     1  UNL1       -0.2256
     27 O          63.3870   90.5704   16.6668 O.3     1  UNL1       -0.2251
@<TRIPOS>BOND
     1    12    13    1
     2    13     6    1
     3     6     7   ar
     4     7     8   ar
     5     8     5    1
     6     5     1    1
     7     1     2   am
     8     2     3    2
     9     2    16    1
    10    16    17    1
    11    17    18    1
    12    17    19    1
    13    19    20    1
    14    20    21    1
    15    21    22    1
    16    22    23    1
    17    23    24    1
    18    24    25    1
    19    20    26    1
    20    26    27    1
    21     8     9   ar
    22     9    10   ar
    23    10    14    1
    24    14    15    1
    25    10    11   ar
    26    11     6   ar
    27    27    17    1
    28    25    20    1
    29     1     4    1
@<TRIPOS>MOLECULE
*****
 27 29 0 0 0
SMALL
GASTEIGER

@<TRIPOS>ATOM
      1 N          64.2421   88.0545   14.1929 N.am    1  UNL1       -0.3004
      2 C          63.9281   87.2636   15.4282 C.2     1  UNL1        0.2252
      3 O          63.1972   87.9103   16.5672 O.2     1  UNL1       -0.2750
      4 H          64.7218   87.6301   13.4453 H       1  UNL1        0.1497
      5 C          63.8250   89.4922   14.0967 C.3     1  UNL1        0.1165
      6 C          62.4213   90.2164   10.4560 C.ar    1  UNL1        0.1415
      7 C          62.6128   89.5794   11.8004 C.ar    1  UNL1        0.0345
      8 C          63.6335   90.1292   12.7523 C.ar    1  UNL1        0.0035
      9 C          64.4627   91.3159   12.3597 C.ar    1  UNL1        0.0345
     10 C          64.2711   91.9529   11.0151 C.ar    1  UNL1        0.1415
     11 C          63.2504   91.4032   10.0634 C.ar    1  UNL1        0.0737
     12 C          61.0853   88.2002    9.5073 C.3     1  UNL1        0.2525
     13 O          61.4005   89.6666    9.5042 O.3     1  UNL1       -0.4713
     14 O          65.1002   93.1396   10.6225 O.3     1  UNL1       -0.4713
     15 C          66.0555   93.7459   11.6073 C.3     1  UNL1        0.2525
     16 C          64.3452   85.8259   15.5244 C.3     1  UNL1        0.1154
     17 C          63.3130   84.7396   15.4581 C.3     1  UNL1        0.1377
     18 C          62.9127   85.2538   16.8091 C.3     1  UNL1        0.0335
     19 C          63.9291   84.4525   14.1209 C.3     1  UNL1        0.0613
     20 C          63.1940   83.2961   13.5105 C.3     1  UNL1        0.1290
     21 C          62.3702   82.1385   13.0297 C.3     1  UNL1        0.0305
     22 C          62.6554   81.5185   11.6940 C.3     1  UNL1        0.0025
     23 C          63.7644   82.0563   10.8390 C.3     1  UNL1        0.0002
     24 C          64.5882   83.2139   11.3198 C.3     1  UNL1        0.0025
     25 C          64.3029   83.8338   12.6555 C.3     1  UNL1        0.0305
     26 O          62.1235   82.8686   14.4704 O.3     1  UNL1       -0.2256
     27 O          62.1971   83.7608   15.6742 O.3     1  UNL1       -0.2251
@<TRIPOS>BOND
     1    12    13    1
     2    13     6    1
     3     6     7   ar
     4     7     8   ar
     5     8     5    1
     6     5     1    1
     7     1     2   am
     8     2     3    2
     9     2    16    1
    10    16    17    1
    11    17    18    1
    12    17    19    1
    13    19    20    1
    14    20    21    1
    15    21    22    1
    16    22    23    1
    17    23    24    1
    18    24    25    1
    19    20    26    1
    20    26    27    1
    21     8     9   ar
    22     9    10   ar
    23    10    14    1
    24    14    15    1
    25    10    11   ar
    26    11     6   ar
    27    27    17    1
    28    25    20    1
    29     1     4    1
@<TRIPOS>MOLECULE
*****
 27 29 0 0 0
SMALL
GASTEIGER

@<TRIPOS>ATOM
      1 N          64.3362   87.8598   14.7252 N.am    1  UNL1       -0.3004
      2 C          63.5507   88.5500   15.8007 C.2     1  UNL1        0.2252
      3 O          63.0163   87.7639   16.9610 O.2     1  UNL1       -0.2750
      4 H          64.6869   88.3758   13.9636 H       1  UNL1        0.1497
      5 C          64.5873   86.3834   14.8101 C.3     1  UNL1        0.1165
      6 C          62.4761   85.0841   11.7109 C.ar    1  UNL1        0.1415
      7 C          63.0888   86.0083   12.7211 C.ar    1  UNL1        0.0345
      8 C          63.9746   85.4592   13.7999 C.ar    1  UNL1        0.0035
      9 C          64.2478   83.9859   13.8685 C.ar    1  UNL1        0.0345
     10 C          63.6351   83.0617   12.8582 C.ar    1  UNL1        0.1415
     11 C          62.7493   83.6108   11.7795 C.ar    1  UNL1        0.0737
     12 C          62.1847   86.0859    9.3314 C.3     1  UNL1        0.2525
     13 O          61.5903   85.6333   10.6321 O.3     1  UNL1       -0.4713
     14 O          63.9083   81.5884   12.9268 O.3     1  UNL1       -0.4713
     15 C          62.8811   80.6614   13.5058 C.3     1  UNL1        0.2525
     16 C          63.2996   90.0265   15.7159 C.3     1  UNL1        0.1154
     17 C          63.9674   90.8405   14.6476 C.3     1  UNL1        0.1377
     18 C          64.8063   91.3514   15.7813 C.3     1  UNL1        0.0335
     19 C          62.9889   90.1596   13.7373 C.3     1  UNL1        0.0613
     20 C          63.2272   90.6595   12.3432 C.3     1  UNL1        0.1290
     21 C          63.5799   91.2486   11.0096 C.3     1  UNL1        0.0305
     22 C          62.8250   90.8317    9.7823 C.3     1  UNL1        0.0025
     23 C          61.7174   89.8258    9.8886 C.3     1  UNL1        0.0002
     24 C          61.3647   89.2368   11.2222 C.3     1  UNL1        0.0025
     25 C          62.1196   89.6536   12.4495 C.3     1  UNL1        0.0305
     26 O          64.3531   91.6495   12.3920 O.3     1  UNL1       -0.2256
     27 O          64.8105   91.7614   13.8163 O.3     1  UNL1       -0.2251
@<TRIPOS>BOND
     1    12    13    1
     2    13     6    1
     3     6     7   ar
     4     7     8   ar
     5     8     5    1
     6     5     1    1
     7     1     2   am
     8     2     3    2
     9     2    16    1
    10    16    17    1
    11    17    18    1
    12    17    19    1
    13    19    20    1
    14    20    21    1
    15    21    22    1
    16    22    23    1
    17    23    24    1
    18    24    25    1
    19    20    26    1
    20    26    27    1
    21     8     9   ar
    22     9    10   ar
    23    10    14    1
    24    14    15    1
    25    10    11   ar
    26    11     6   ar
    27    27    17    1
    28    25    20    1
    29     1     4    1
@<TRIPOS>MOLECULE
*****
 27 29 0 0 0
SMALL
GASTEIGER

@<TRIPOS>ATOM
      1 N          63.1045   86.9066   12.4356 N.am    1  UNL1       -0.3004
      2 C          63.7991   87.3579   13.6862 C.2     1  UNL1        0.2252
      3 O          63.8714   88.8188   14.0185 O.2     1  UNL1       -0.2750
      4 H          63.0570   85.9478   12.2175 H       1  UNL1        0.1497
      5 C          62.4821   87.9163   11.5174 C.3     1  UNL1        0.1165
      6 C          60.1380   87.7955    8.3173 C.ar    1  UNL1        0.1415
      7 C          60.7345   88.2351    9.6215 C.ar    1  UNL1        0.0345
      8 C          61.8856   87.4768   10.2132 C.ar    1  UNL1        0.0035
      9 C          62.4402   86.2790    9.5007 C.ar    1  UNL1        0.0345
     10 C          61.8435   85.8395    8.1964 C.ar    1  UNL1        0.1415
     11 C          60.6925   86.5977    7.6048 C.ar    1  UNL1        0.0737
     12 C          59.2135   89.4750    6.5638 C.3     1  UNL1        0.2525
     13 O          58.9869   88.5539    7.7257 O.3     1  UNL1       -0.4713
     14 O          62.3981   84.6417    7.4839 O.3     1  UNL1       -0.4713
     15 C          62.0439   84.3929    6.0477 C.3     1  UNL1        0.2525
     16 C          64.4215   86.3481   14.6045 C.3     1  UNL1        0.1154
     17 C          63.5875   85.2406   15.1769 C.3     1  UNL1        0.1377
     18 C          63.5101   86.1330   16.3801 C.3     1  UNL1        0.0335
     19 C          63.8393   84.5798   13.8540 C.3     1  UNL1        0.0613
     20 C          63.1446   83.2503   13.8603 C.3     1  UNL1        0.1290
     21 C          62.4026   81.9556   14.0122 C.3     1  UNL1        0.0305
     22 C          62.3911   80.9615   12.8890 C.3     1  UNL1        0.0025
     23 C          63.1216   81.2621   11.6139 C.3     1  UNL1        0.0002
     24 C          63.8637   82.5568   11.4620 C.3     1  UNL1        0.0025
     25 C          63.8752   83.5509   12.5852 C.3     1  UNL1        0.0305
     26 O          62.4636   83.0894   15.1871 O.3     1  UNL1       -0.2256
     27 O          62.7373   84.3196   16.0008 O.3     1  UNL1       -0.2251
@<TRIPOS>BOND
     1    12    13    1
     2    13     6    1
     3     6     7   ar
     4     7     8   ar
     5     8     5    1
     6     5     1    1
     7     1     2   am
     8     2     3    2
     9     2    16    1
    10    16    17    1
    11    17    18    1
    12    17    19    1
    13    19    20    1
    14    20    21    1
    15    21    22    1
    16    22    23    1
    17    23    24    1
    18    24    25    1
    19    20    26    1
    20    26    27    1
    21     8     9   ar
    22     9    10   ar
    23    10    14    1
    24    14    15    1
    25    10    11   ar
    26    11     6   ar
    27    27    17    1
    28    25    20    1
    29     1     4    1
@<TRIPOS>MOLECULE
*****
 27 29 0 0 0
SMALL
GASTEIGER

@<TRIPOS>ATOM
      1 N          63.0979   86.8355   12.5240 N.am    1  UNL1       -0.3004
      2 C          63.8495   87.2550   13.7526 C.2     1  UNL1        0.2252
      3 O          64.0358   88.7119   14.0569 O.2     1  UNL1       -0.2750
      4 H          62.9757   85.8792   12.3243 H       1  UNL1        0.1497
      5 C          62.5327   87.8730   11.5999 C.3     1  UNL1        0.1165
      6 C          61.8545   85.8541    8.2511 C.ar    1  UNL1        0.1415
      7 C          62.4611   86.2660    9.5597 C.ar    1  UNL1        0.0345
      8 C          61.9261   87.4612   10.2913 C.ar    1  UNL1        0.0035
      9 C          60.7844   88.2445    9.7143 C.ar    1  UNL1        0.0345
     10 C          60.1778   87.8327    8.4057 C.ar    1  UNL1        0.1415
     11 C          60.7128   86.6375    7.6741 C.ar    1  UNL1        0.0737
     12 C          61.9922   84.4119    6.0944 C.3     1  UNL1        0.2525
     13 O          62.3896   84.6589    7.5195 O.3     1  UNL1       -0.4713
     14 O          59.0361   88.6160    7.8287 O.3     1  UNL1       -0.4713
     15 C          59.2319   89.4124    6.5728 C.3     1  UNL1        0.2525
     16 C          64.4147   86.2175   14.6768 C.3     1  UNL1        0.1154
     17 C          63.5328   85.1276   15.2098 C.3     1  UNL1        0.1377
     18 C          63.4170   86.0228   16.4078 C.3     1  UNL1        0.0335
     19 C          63.8330   84.4602   13.9004 C.3     1  UNL1        0.0613
     20 C          63.1123   83.1448   13.8746 C.3     1  UNL1        0.1290
     21 C          62.3381   81.8655   13.9919 C.3     1  UNL1        0.0305
     22 C          62.3593   80.8704   12.8697 C.3     1  UNL1        0.0025
     23 C          63.1547   81.1548   11.6301 C.3     1  UNL1        0.0002
     24 C          63.9289   82.4341   11.5128 C.3     1  UNL1        0.0025
     25 C          63.9077   83.4292   12.6350 C.3     1  UNL1        0.0305
     26 O          62.3667   82.9993   15.1680 O.3     1  UNL1       -0.2256
     27 O          62.6266   84.2247   15.9933 O.3     1  UNL1       -0.2251
@<TRIPOS>BOND
     1    12    13    1
     2    13     6    1
     3     6     7   ar
     4     7     8   ar
     5     8     5    1
     6     5     1    1
     7     1     2   am
     8     2     3    2
     9     2    16    1
    10    16    17    1
    11    17    18    1
    12    17    19    1
    13    19    20    1
    14    20    21    1
    15    21    22    1
    16    22    23    1
    17    23    24    1
    18    24    25    1
    19    20    26    1
    20    26    27    1
    21     8     9   ar
    22     9    10   ar
    23    10    14    1
    24    14    15    1
    25    10    11   ar
    26    11     6   ar
    27    27    17    1
    28    25    20    1
    29     1     4    1
