@<TRIPOS>MOLECULE
*****
 31 36 0 0 0
SMALL
GASTEIGER

@<TRIPOS>ATOM
      1 O          61.0576   94.4262   -5.4589 O.2     1  UNL1       -0.2638
      2 C          60.0202   94.7171   -4.4152 C.2     1  UNL1        0.3160
      3 N          58.5919   94.9356   -4.8179 N.am    1  UNL1       -0.1720
      4 C          57.5544   95.2266   -3.7743 C.ar    1  UNL1        0.0775
      5 C          56.1262   95.4450   -4.1769 C.ar    1  UNL1        0.0167
      6 C          55.0888   95.7360   -3.1333 C.ar    1  UNL1        0.0013
      7 C          55.4798   95.8084   -1.6870 C.ar    1  UNL1        0.0002
      8 C          56.9081   95.5899   -1.2843 C.ar    1  UNL1        0.0051
      9 C          57.9454   95.2990   -2.3279 C.ar    1  UNL1        0.0623
     10 C          59.3738   95.0805   -1.9252 C.2     1  UNL1        0.2419
     11 N          60.0521   95.0903   -0.5875 N.2     1  UNL1       -0.0302
     12 C          61.5088   94.8053   -0.8043 C.2     1  UNL1        0.3765
     13 N          61.7306   94.6195   -2.2761 N.2     1  UNL1       -0.0256
     14 C          60.4111   94.7896   -2.9689 C.2     1  UNL1        0.2907
     15 C          53.6604   95.9544   -3.5360 C.ar    1  UNL1        0.0000
     16 C          52.5877   96.0187   -2.4895 C.ar    1  UNL1        0.0000
     17 C          51.1593   96.2371   -2.8921 C.ar    1  UNL1        0.0000
     18 C          50.8037   96.3914   -4.3412 C.ar    1  UNL1        0.0000
     19 C          49.3754   96.6099   -4.7438 C.ar    1  UNL1        0.0000
     20 C          49.0199   96.7642   -6.1929 C.ar    1  UNL1        0.0000
     21 C          50.0927   96.7000   -7.2393 C.ar    1  UNL1        0.0000
     22 C          51.5210   96.4815   -6.8367 C.ar    1  UNL1        0.0000
     23 C          51.8765   96.3272   -5.3877 C.ar    1  UNL1        0.0000
     24 C          53.3049   96.1087   -4.9850 C.ar    1  UNL1        0.0000
     25 C          62.5591   94.7210    0.2633 C.ar    1  UNL1        0.0989
     26 C          63.5089   95.8629    0.4728 C.ar    1  UNL1        0.0085
     27 C          64.5592   95.7786    1.5404 C.ar    1  UNL1        0.0003
     28 C          64.6597   94.5523    2.3984 C.ar    1  UNL1        0.0009
     29 C          63.7100   93.4104    2.1888 C.ar    1  UNL1        0.0116
     30 C          62.6597   93.4948    1.1213 C.ar    1  UNL1        0.0651
     31 CL         61.7099   92.3528    0.9117 Cl      1  UNL1       -0.0820
@<TRIPOS>BOND
     1     1     2    2
     2     2     3    1
     3     3     4    2
     4     4     5   ar
     5     5     6   ar
     6     6    15    1
     7    15    16   ar
     8    16    17   ar
     9    17    18   ar
    10    18    19   ar
    11    19    20   ar
    12    20    21   ar
    13    21    22   ar
    14    22    23   ar
    15    23    24   ar
    16     6     7   ar
    17     7     8   ar
    18     8     9   ar
    19     9    10    2
    20    10    11    1
    21    11    12    2
    22    12    25    1
    23    25    26   ar
    24    26    27   ar
    25    27    28   ar
    26    28    29   ar
    27    29    30   ar
    28    30    31    1
    29    12    13    1
    30    13    14    2
    31    14     2    1
    32     9     4   ar
    33    14    10    1
    34    24    15   ar
    35    30    25   ar
    36    23    18   ar
@<TRIPOS>MOLECULE
*****
 31 36 0 0 0
SMALL
GASTEIGER

@<TRIPOS>ATOM
      1 O          63.5316   88.6957   13.2040 O.2     1  UNL1       -0.2638
      2 C          62.7974   88.1627   12.0094 C.2     1  UNL1        0.3160
      3 N          62.3314   89.1006   10.9356 N.am    1  UNL1       -0.1720
      4 C          61.5972   88.5676    9.7410 C.ar    1  UNL1        0.0775
      5 C          61.1311   89.5055    8.6672 C.ar    1  UNL1        0.0167
      6 C          60.3970   88.9725    7.4727 C.ar    1  UNL1        0.0013
      7 C          60.1288   87.5016    7.3521 C.ar    1  UNL1        0.0002
      8 C          60.5948   86.5637    8.4259 C.ar    1  UNL1        0.0051
      9 C          61.3290   87.0967    9.6204 C.ar    1  UNL1        0.0623
     10 C          61.7951   86.1588   10.6943 C.2     1  UNL1        0.2419
     11 N          61.6768   84.6715   10.8485 N.2     1  UNL1       -0.0302
     12 C          62.3379   84.2852   12.1384 C.2     1  UNL1        0.3765
     13 N          62.8648   85.5338   12.7813 N.2     1  UNL1       -0.0256
     14 C          62.5292   86.6918   11.8888 C.2     1  UNL1        0.2907
     15 C          59.9309   89.9104    6.3988 C.ar    1  UNL1        0.0000
     16 C          58.4719   90.2320    6.2653 C.ar    1  UNL1        0.0000
     17 C          58.0058   91.1698    5.1915 C.ar    1  UNL1        0.0000
     18 C          58.9987   91.7861    4.2511 C.ar    1  UNL1        0.0000
     19 C          58.5327   92.7240    3.1773 C.ar    1  UNL1        0.0000
     20 C          59.5256   93.3402    2.2369 C.ar    1  UNL1        0.0000
     21 C          60.9846   93.0186    2.3704 C.ar    1  UNL1        0.0000
     22 C          61.4507   92.0807    3.4442 C.ar    1  UNL1        0.0000
     23 C          60.4578   91.4645    4.3846 C.ar    1  UNL1        0.0000
     24 C          60.9238   90.5266    5.4585 C.ar    1  UNL1        0.0000
     25 C          62.4522   82.8944   12.6887 C.ar    1  UNL1        0.0989
     26 C          61.9207   82.5830   14.0563 C.ar    1  UNL1        0.0085
     27 C          62.0349   81.1923   14.6066 C.ar    1  UNL1        0.0003
     28 C          62.6807   80.1130   13.7892 C.ar    1  UNL1        0.0009
     29 C          63.2121   80.4244   12.4215 C.ar    1  UNL1        0.0116
     30 C          63.0979   81.8151   11.8713 C.ar    1  UNL1        0.0651
     31 CL         63.6294   82.1266   10.5036 Cl      1  UNL1       -0.0820
@<TRIPOS>BOND
     1     1     2    2
     2     2     3    1
     3     3     4    2
     4     4     5   ar
     5     5     6   ar
     6     6    15    1
     7    15    16   ar
     8    16    17   ar
     9    17    18   ar
    10    18    19   ar
    11    19    20   ar
    12    20    21   ar
    13    21    22   ar
    14    22    23   ar
    15    23    24   ar
    16     6     7   ar
    17     7     8   ar
    18     8     9   ar
    19     9    10    2
    20    10    11    1
    21    11    12    2
    22    12    25    1
    23    25    26   ar
    24    26    27   ar
    25    27    28   ar
    26    28    29   ar
    27    29    30   ar
    28    30    31    1
    29    12    13    1
    30    13    14    2
    31    14     2    1
    32     9     4   ar
    33    14    10    1
    34    24    15   ar
    35    30    25   ar
    36    23    18   ar
@<TRIPOS>MOLECULE
*****
 31 36 0 0 0
SMALL
GASTEIGER

@<TRIPOS>ATOM
      1 O          61.0992   90.1270   11.0336 O.2     1  UNL1       -0.2638
      2 C          61.9798   89.1321   11.7299 C.2     1  UNL1        0.3160
      3 N          61.7119   87.6633   11.5857 N.am    1  UNL1       -0.1720
      4 C          62.5925   86.6684   12.2820 C.ar    1  UNL1        0.0775
      5 C          62.3246   85.1996   12.1378 C.ar    1  UNL1        0.0167
      6 C          63.2052   84.2048   12.8341 C.ar    1  UNL1        0.0013
      7 C          64.3537   84.6787   13.6745 C.ar    1  UNL1        0.0002
      8 C          64.6215   86.1475   13.8187 C.ar    1  UNL1        0.0051
      9 C          63.7410   87.1424   13.1224 C.ar    1  UNL1        0.0623
     10 C          64.0088   88.6112   13.2666 C.2     1  UNL1        0.2419
     11 N          65.0586   89.3705   14.0224 N.2     1  UNL1       -0.0302
     12 C          64.8269   90.8347   13.7933 C.2     1  UNL1        0.3765
     13 N          63.6338   90.9803   12.8958 N.2     1  UNL1       -0.0256
     14 C          63.1282   89.6061   12.5703 C.2     1  UNL1        0.2907
     15 C          62.9373   82.7359   12.6899 C.ar    1  UNL1        0.0000
     16 C          62.4470   81.9440   13.8657 C.ar    1  UNL1        0.0000
     17 C          62.1792   80.4752   13.7216 C.ar    1  UNL1        0.0000
     18 C          62.4016   79.7982   12.4016 C.ar    1  UNL1        0.0000
     19 C          62.1338   78.3294   12.2575 C.ar    1  UNL1        0.0000
     20 C          62.3562   77.6525   10.9376 C.ar    1  UNL1        0.0000
     21 C          62.8466   78.4443    9.7618 C.ar    1  UNL1        0.0000
     22 C          63.1144   79.9131    9.9059 C.ar    1  UNL1        0.0000
     23 C          62.8920   80.5901   11.2258 C.ar    1  UNL1        0.0000
     24 C          63.1598   82.0590   11.3700 C.ar    1  UNL1        0.0000
     25 C          65.6446   91.9564   14.3618 C.ar    1  UNL1        0.0989
     26 C          66.0638   91.9240   15.8016 C.ar    1  UNL1        0.0085
     27 C          66.8815   93.0457   16.3701 C.ar    1  UNL1        0.0003
     28 C          67.2801   94.1997   15.4987 C.ar    1  UNL1        0.0009
     29 C          66.8609   94.2321   14.0588 C.ar    1  UNL1        0.0116
     30 C          66.0432   93.1104   13.4904 C.ar    1  UNL1        0.0651
     31 CL         65.6240   93.1428   12.0505 Cl      1  UNL1       -0.0820
@<TRIPOS>BOND
     1     1     2    2
     2     2     3    1
     3     3     4    2
     4     4     5   ar
     5     5     6   ar
     6     6    15    1
     7    15    16   ar
     8    16    17   ar
     9    17    18   ar
    10    18    19   ar
    11    19    20   ar
    12    20    21   ar
    13    21    22   ar
    14    22    23   ar
    15    23    24   ar
    16     6     7   ar
    17     7     8   ar
    18     8     9   ar
    19     9    10    2
    20    10    11    1
    21    11    12    2
    22    12    25    1
    23    25    26   ar
    24    26    27   ar
    25    27    28   ar
    26    28    29   ar
    27    29    30   ar
    28    30    31    1
    29    12    13    1
    30    13    14    2
    31    14     2    1
    32     9     4   ar
    33    14    10    1
    34    24    15   ar
    35    30    25   ar
    36    23    18   ar
@<TRIPOS>MOLECULE
*****
 31 36 0 0 0
SMALL
GASTEIGER

@<TRIPOS>ATOM
      1 O          62.4586   86.3636   18.6559 O.2     1  UNL1       -0.2638
      2 C          62.8607   86.7171   17.2547 C.2     1  UNL1        0.3160
      3 N          63.3507   88.0997   16.9412 N.am    1  UNL1       -0.1720
      4 C          63.7529   88.4532   15.5400 C.ar    1  UNL1        0.0775
      5 C          64.2429   89.8358   15.2265 C.ar    1  UNL1        0.0167
      6 C          64.6450   90.1893   13.8254 C.ar    1  UNL1        0.0013
      7 C          64.5571   89.1601   12.7376 C.ar    1  UNL1        0.0002
      8 C          64.0671   87.7775   13.0511 C.ar    1  UNL1        0.0051
      9 C          63.6650   87.4241   14.4523 C.ar    1  UNL1        0.0623
     10 C          63.1749   86.0414   14.7658 C.2     1  UNL1        0.2419
     11 N          62.9819   84.8265   13.9076 N.2     1  UNL1       -0.0302
     12 C          62.4605   83.7220   14.7784 C.2     1  UNL1        0.3765
     13 N          62.3312   84.2545   16.1748 N.2     1  UNL1       -0.0256
     14 C          62.7728   85.6880   16.1669 C.2     1  UNL1        0.2907
     15 C          65.1350   91.5719   13.5119 C.ar    1  UNL1        0.0000
     16 C          65.7770   92.4012   14.5843 C.ar    1  UNL1        0.0000
     17 C          66.2670   93.7838   14.2709 C.ar    1  UNL1        0.0000
     18 C          66.1151   94.3372   12.8849 C.ar    1  UNL1        0.0000
     19 C          66.6052   95.7197   12.5715 C.ar    1  UNL1        0.0000
     20 C          66.4533   96.2730   11.1856 C.ar    1  UNL1        0.0000
     21 C          65.8114   95.4437   10.1131 C.ar    1  UNL1        0.0000
     22 C          65.3213   94.0611   10.4266 C.ar    1  UNL1        0.0000
     23 C          65.4732   93.5078   11.8125 C.ar    1  UNL1        0.0000
     24 C          64.9832   92.1252   12.1260 C.ar    1  UNL1        0.0000
     25 C          62.1268   82.3296   14.3314 C.ar    1  UNL1        0.0989
     26 C          60.7572   81.7703   14.5790 C.ar    1  UNL1        0.0085
     27 C          60.4236   80.3779   14.1320 C.ar    1  UNL1        0.0003
     28 C          61.4596   79.5448   13.4372 C.ar    1  UNL1        0.0009
     29 C          62.8292   80.1041   13.1895 C.ar    1  UNL1        0.0116
     30 C          63.1628   81.4965   13.6366 C.ar    1  UNL1        0.0651
     31 CL         64.5324   82.0558   13.3889 Cl      1  UNL1       -0.0820
@<TRIPOS>BOND
     1     1     2    2
     2     2     3    1
     3     3     4    2
     4     4     5   ar
     5     5     6   ar
     6     6    15    1
     7    15    16   ar
     8    16    17   ar
     9    17    18   ar
    10    18    19   ar
    11    19    20   ar
    12    20    21   ar
    13    21    22   ar
    14    22    23   ar
    15    23    24   ar
    16     6     7   ar
    17     7     8   ar
    18     8     9   ar
    19     9    10    2
    20    10    11    1
    21    11    12    2
    22    12    25    1
    23    25    26   ar
    24    26    27   ar
    25    27    28   ar
    26    28    29   ar
    27    29    30   ar
    28    30    31    1
    29    12    13    1
    30    13    14    2
    31    14     2    1
    32     9     4   ar
    33    14    10    1
    34    24    15   ar
    35    30    25   ar
    36    23    18   ar
