@<TRIPOS>MOLECULE
*****
 33 35 0 0 0
SMALL
GASTEIGER

@<TRIPOS>ATOM
      1 C          62.9244   85.8116   12.2470 C.2     1  UNL1        0.2439
      2 O          62.8942   87.3019   12.0794 O.2     1  UNL1       -0.2731
      3 N          63.4157   85.2110   13.5307 N.am    1  UNL1       -0.2730
      4 C          63.5031   83.7462   13.8421 C.3     1  UNL1        0.0939
      5 C          64.0473   83.5996   15.2321 C.3     1  UNL1        0.0237
      6 C          64.2961   84.9736   15.7799 C.3     1  UNL1        0.0293
      7 C          63.9058   85.9695   14.7283 C.3     1  UNL1        0.1319
      8 C          63.9907   87.4619   14.8525 C.ar    1  UNL1        0.1358
      9 N          63.4347   88.2862   15.9757 N.ar    1  UNL1       -0.2228
     10 C          63.7468   89.7258   15.6927 C.ar    1  UNL1        0.1321
     11 BR         63.3753   90.8947   16.5562 Br      1  UNL1       -0.0265
     12 C          64.4957   89.7913   14.3947 C.ar    1  UNL1        0.0818
     13 N          64.6464   88.3921   13.8755 N.ar    1  UNL1       -0.3391
     14 H          65.0967   88.1303   13.0400 H       1  UNL1        0.1672
     15 C          65.0046   91.0372   13.7322 C.ar    1  UNL1        0.0177
     16 C          65.9865   91.9185   14.4457 C.ar    1  UNL1        0.0033
     17 C          66.4953   93.1644   13.7832 C.ar    1  UNL1        0.0262
     18 C          66.0222   93.5289   12.4073 C.ar    1  UNL1        0.1641
     19 C          65.0404   92.6475   11.6938 C.ar    1  UNL1        0.0262
     20 C          64.5315   91.4017   12.3562 C.ar    1  UNL1        0.0033
     21 N          66.5311   94.7748   11.7448 N.2     1  UNL1        0.1168
     22 N          67.3883   94.6753   10.5179 N.2     1  UNL1       -0.0090
     23 N          68.2456   94.5758    9.2909 N.2     1  UNL1       -0.3278
     24 C          62.4632   84.9219   11.1308 C.3     1  UNL1        0.1512
     25 C          63.4284   82.5107   11.0631 C.2     1  UNL1        0.4021
     26 O          64.7239   83.0444   10.5276 O.2     1  UNL1       -0.2264
     27 N          62.2980   83.4495   11.3647 N.am    1  UNL1       -0.2640
     28 H          61.4477   83.0993   11.7162 H       1  UNL1        0.1532
     29 C          62.7144   80.5433   12.6023 C.3     1  UNL1        0.2573
     30 O          63.2631   81.0384   11.2970 O.3     1  UNL1       -0.4306
     31 C          62.1672   85.5047    9.7807 C.3     1  UNL1        0.0270
     32 C          63.1266   85.2955    8.6468 C.3     1  UNL1        0.0022
     33 C          60.9118   86.2967    9.5645 C.3     1  UNL1        0.0022
@<TRIPOS>UNITY_ATOM_ATTR
22 1
charge 1
23 1
charge -1
@<TRIPOS>BOND
     1    29    30    1
     2    30    25    1
     3    25    26    2
     4    25    27   am
     5    24    27    1
     6    24     1    1
     7     1     2    2
     8     1     3   am
     9     3     4    1
    10     4     5    1
    11     5     6    1
    12     6     7    1
    13     7     8    1
    14     8     9   ar
    15     9    10   ar
    16    10    11    1
    17    10    12   ar
    18    12    15    1
    19    15    16   ar
    20    16    17   ar
    21    17    18   ar
    22    18    21    1
    23    21    22    2
    24    22    23    2
    25    18    19   ar
    26    19    20   ar
    27    12    13   ar
    28    24    31    1
    29    31    32    1
    30    31    33    1
    31     7     3    1
    32    13     8   ar
    33    20    15   ar
    34    27    28    1
    35    13    14    1
@<TRIPOS>MOLECULE
*****
 33 35 0 0 0
SMALL
GASTEIGER

@<TRIPOS>ATOM
      1 C          62.9210   85.7793   12.3773 C.2     1  UNL1        0.2439
      2 O          62.8772   87.2647   12.1740 O.2     1  UNL1       -0.2731
      3 N          63.4406   85.2135   13.6657 N.am    1  UNL1       -0.2730
      4 C          63.5443   83.7575   14.0110 C.3     1  UNL1        0.0939
      5 C          64.1156   83.6486   15.3937 C.3     1  UNL1        0.0237
      6 C          64.3650   85.0373   15.9028 C.3     1  UNL1        0.0293
      7 C          63.9479   86.0044   14.8349 C.3     1  UNL1        0.1319
      8 C          64.0246   87.5000   14.9210 C.ar    1  UNL1        0.1358
      9 N          63.4387   88.3518   16.0079 N.ar    1  UNL1       -0.2228
     10 C          63.7526   89.7845   15.6940 C.ar    1  UNL1        0.1321
     11 BR         63.3563   90.9746   16.5166 Br      1  UNL1       -0.0265
     12 C          64.5324   89.8183   14.4131 C.ar    1  UNL1        0.0818
     13 N          64.7005   88.4064   13.9354 N.ar    1  UNL1       -0.3391
     14 H          65.1717   88.1242   13.1183 H       1  UNL1        0.1672
     15 C          65.0529   91.0481   13.7298 C.ar    1  UNL1        0.0177
     16 C          64.5152   91.4443   12.3867 C.ar    1  UNL1        0.0033
     17 C          65.0356   92.6740   11.7035 C.ar    1  UNL1        0.0262
     18 C          66.0937   93.5077   12.3634 C.ar    1  UNL1        0.1641
     19 C          66.6314   93.1115   13.7065 C.ar    1  UNL1        0.0262
     20 C          66.1110   91.8818   14.3897 C.ar    1  UNL1        0.0033
     21 N          66.6141   94.7375   11.6801 N.2     1  UNL1        0.1168
     22 N          67.3264   94.6203   10.3653 N.2     1  UNL1       -0.0090
     23 N          68.0387   94.5032    9.0504 N.2     1  UNL1       -0.3278
     24 C          62.4451   84.8594   11.2922 C.3     1  UNL1        0.1512
     25 C          61.5038   85.9754    9.1431 C.2     1  UNL1        0.4021
     26 O          62.8991   86.3100    8.7057 O.2     1  UNL1       -0.2264
     27 N          61.2769   85.2501   10.4364 N.am    1  UNL1       -0.2640
     28 H          60.3611   85.0306   10.7235 H       1  UNL1        0.1532
     29 C          59.9263   87.8059    8.1888 C.3     1  UNL1        0.2573
     30 O          60.3355   86.3662    8.2874 O.3     1  UNL1       -0.4306
     31 C          63.1376   83.5487   11.0629 C.3     1  UNL1        0.0270
     32 C          64.4267   83.5054   10.2971 C.3     1  UNL1        0.0022
     33 C          62.5411   82.2812   11.5994 C.3     1  UNL1        0.0022
@<TRIPOS>UNITY_ATOM_ATTR
22 1
charge 1
23 1
charge -1
@<TRIPOS>BOND
     1    29    30    1
     2    30    25    1
     3    25    26    2
     4    25    27   am
     5    24    27    1
     6    24     1    1
     7     1     2    2
     8     1     3   am
     9     3     4    1
    10     4     5    1
    11     5     6    1
    12     6     7    1
    13     7     8    1
    14     8     9   ar
    15     9    10   ar
    16    10    11    1
    17    10    12   ar
    18    12    15    1
    19    15    16   ar
    20    16    17   ar
    21    17    18   ar
    22    18    21    1
    23    21    22    2
    24    22    23    2
    25    18    19   ar
    26    19    20   ar
    27    12    13   ar
    28    24    31    1
    29    31    32    1
    30    31    33    1
    31     7     3    1
    32    13     8   ar
    33    20    15   ar
    34    27    28    1
    35    13    14    1
@<TRIPOS>MOLECULE
*****
 33 35 0 0 0
SMALL
GASTEIGER

@<TRIPOS>ATOM
      1 C          63.8746   88.1151   13.9150 C.2     1  UNL1        0.2439
      2 O          63.4173   88.5520   12.5549 O.2     1  UNL1       -0.2731
      3 N          63.9039   86.6565   14.2639 N.am    1  UNL1       -0.2730
      4 C          64.3346   86.0724   15.5766 C.3     1  UNL1        0.0939
      5 C          64.2045   84.5809   15.4853 C.3     1  UNL1        0.0237
      6 C          63.6933   84.2432   14.1161 C.3     1  UNL1        0.0293
      7 C          63.5076   85.5260   13.3613 C.3     1  UNL1        0.1319
      8 C          63.0124   85.6555   11.9513 C.ar    1  UNL1        0.1358
      9 N          63.4224   84.7983   10.7906 N.ar    1  UNL1       -0.2228
     10 C          62.6837   85.2780    9.5764 C.ar    1  UNL1        0.1321
     11 BR         62.7925   84.7047    8.1946 Br      1  UNL1       -0.0265
     12 C          61.8173   86.4317    9.9867 C.ar    1  UNL1        0.0818
     13 N          62.0204   86.6650   11.4544 N.ar    1  UNL1       -0.3391
     14 H          61.5800   87.3588   11.9965 H       1  UNL1        0.1672
     15 C          60.9073   87.2146    9.0871 C.ar    1  UNL1        0.0177
     16 C          59.9519   86.4983    8.1795 C.ar    1  UNL1        0.0033
     17 C          59.0420   87.2812    7.2800 C.ar    1  UNL1        0.0262
     18 C          59.0876   88.7805    7.2881 C.ar    1  UNL1        0.1641
     19 C          60.0431   89.4968    8.1957 C.ar    1  UNL1        0.0262
     20 C          60.9530   88.7139    9.0952 C.ar    1  UNL1        0.0033
     21 N          58.1777   89.5634    6.3886 N.2     1  UNL1        0.1168
     22 N          58.7132   90.7285    5.6102 N.2     1  UNL1       -0.0090
     23 N          59.2488   91.8936    4.8318 N.2     1  UNL1       -0.3278
     24 C          64.3026   89.1368   14.9264 C.3     1  UNL1        0.1512
     25 C          65.4726   91.2373   13.9419 C.2     1  UNL1        0.4021
     26 O          64.1553   91.7242   13.4152 O.2     1  UNL1       -0.2264
     27 N          65.5463   89.9436   14.6976 N.am    1  UNL1       -0.2640
     28 H          66.4109   89.6240   15.0433 H       1  UNL1        0.1532
     29 C          66.8236   93.4318   14.2722 C.3     1  UNL1        0.2573
     30 O          66.7163   92.0440   13.7131 O.3     1  UNL1       -0.4306
     31 C          63.4869   89.3518   16.1668 C.3     1  UNL1        0.0270
     32 C          62.9237   88.1751   16.9073 C.3     1  UNL1        0.0022
     33 C          63.2344   90.7433   16.6667 C.3     1  UNL1        0.0022
@<TRIPOS>UNITY_ATOM_ATTR
22 1
charge 1
23 1
charge -1
@<TRIPOS>BOND
     1    29    30    1
     2    30    25    1
     3    25    26    2
     4    25    27   am
     5    24    27    1
     6    24     1    1
     7     1     2    2
     8     1     3   am
     9     3     4    1
    10     4     5    1
    11     5     6    1
    12     6     7    1
    13     7     8    1
    14     8     9   ar
    15     9    10   ar
    16    10    11    1
    17    10    12   ar
    18    12    15    1
    19    15    16   ar
    20    16    17   ar
    21    17    18   ar
    22    18    21    1
    23    21    22    2
    24    22    23    2
    25    18    19   ar
    26    19    20   ar
    27    12    13   ar
    28    24    31    1
    29    31    32    1
    30    31    33    1
    31     7     3    1
    32    13     8   ar
    33    20    15   ar
    34    27    28    1
    35    13    14    1
@<TRIPOS>MOLECULE
*****
 33 35 0 0 0
SMALL
GASTEIGER

@<TRIPOS>ATOM
      1 C          64.8419   91.9892   12.3399 C.2     1  UNL1        0.2439
      2 O          64.3184   91.7682   10.9518 O.2     1  UNL1       -0.2731
      3 N          64.3118   91.1719   13.4805 N.am    1  UNL1       -0.2730
      4 C          64.7369   91.2798   14.9149 C.3     1  UNL1        0.0939
      5 C          63.9514   90.2777   15.7078 C.3     1  UNL1        0.0237
      6 C          63.0407   89.5505   14.7634 C.3     1  UNL1        0.0293
      7 C          63.2635   90.1031   13.3869 C.3     1  UNL1        0.1319
      8 C          62.5613   89.6641   12.1363 C.ar    1  UNL1        0.1358
      9 N          61.5476   90.4599   11.3686 N.ar    1  UNL1       -0.2228
     10 C          61.1092   89.6398   10.1916 C.ar    1  UNL1        0.1321
     11 BR         60.1046   90.0503    9.1562 Br      1  UNL1       -0.0265
     12 C          61.8519   88.3372   10.2319 C.ar    1  UNL1        0.0818
     13 N          62.7493   88.3522   11.4337 N.ar    1  UNL1       -0.3391
     14 H          63.3554   87.6282   11.7125 H       1  UNL1        0.1672
     15 C          61.7204   87.2163    9.2437 C.ar    1  UNL1        0.0177
     16 C          60.4063   86.9647    8.5655 C.ar    1  UNL1        0.0033
     17 C          60.2748   85.8439    7.5774 C.ar    1  UNL1        0.0262
     18 C          61.4573   84.9746    7.2675 C.ar    1  UNL1        0.1641
     19 C          62.7714   85.2262    7.9457 C.ar    1  UNL1        0.0262
     20 C          62.9029   86.3470    8.9338 C.ar    1  UNL1        0.0033
     21 N          61.3258   83.8537    6.2794 N.2     1  UNL1        0.1168
     22 N          61.3498   84.1443    4.8080 N.2     1  UNL1       -0.0090
     23 N          61.3739   84.4348    3.3366 N.2     1  UNL1       -0.3278
     24 C          65.8956   93.0277   12.5876 C.3     1  UNL1        0.1512
     25 C          66.6774   94.6920   10.7521 C.2     1  UNL1        0.4021
     26 O          67.6551   93.6737   10.2451 O.2     1  UNL1       -0.2264
     27 N          65.7976   94.3690   11.9233 N.am    1  UNL1       -0.2640
     28 H          65.1559   95.0374   12.2561 H       1  UNL1        0.1532
     29 C          67.3366   96.3000    8.8208 C.3     1  UNL1        0.2573
     30 O          66.5793   96.0333   10.0879 O.3     1  UNL1       -0.4306
     31 C          67.0474   92.7248   13.4996 C.3     1  UNL1        0.0270
     32 C          68.0106   91.6285   13.1526 C.3     1  UNL1        0.0022
     33 C          67.2360   93.5182   14.7586 C.3     1  UNL1        0.0022
@<TRIPOS>UNITY_ATOM_ATTR
22 1
charge 1
23 1
charge -1
@<TRIPOS>BOND
     1    29    30    1
     2    30    25    1
     3    25    26    2
     4    25    27   am
     5    24    27    1
     6    24     1    1
     7     1     2    2
     8     1     3   am
     9     3     4    1
    10     4     5    1
    11     5     6    1
    12     6     7    1
    13     7     8    1
    14     8     9   ar
    15     9    10   ar
    16    10    11    1
    17    10    12   ar
    18    12    15    1
    19    15    16   ar
    20    16    17   ar
    21    17    18   ar
    22    18    21    1
    23    21    22    2
    24    22    23    2
    25    18    19   ar
    26    19    20   ar
    27    12    13   ar
    28    24    31    1
    29    31    32    1
    30    31    33    1
    31     7     3    1
    32    13     8   ar
    33    20    15   ar
    34    27    28    1
    35    13    14    1
@<TRIPOS>MOLECULE
*****
 33 35 0 0 0
SMALL
GASTEIGER

@<TRIPOS>ATOM
      1 C          65.0094   92.0295   11.9504 C.2     1  UNL1        0.2439
      2 O          64.3848   91.7471   10.6162 O.2     1  UNL1       -0.2731
      3 N          64.5288   91.3042   13.1722 N.am    1  UNL1       -0.2730
      4 C          65.0543   91.4805   14.5661 C.3     1  UNL1        0.0939
      5 C          64.2886   90.5605   15.4700 C.3     1  UNL1        0.0237
      6 C          63.2898   89.8155   14.6349 C.3     1  UNL1        0.0293
      7 C          63.4382   90.2752   13.2148 C.3     1  UNL1        0.1319
      8 C          62.6369   89.7908   12.0430 C.ar    1  UNL1        0.1358
      9 N          61.4958   90.5172   11.3945 N.ar    1  UNL1       -0.2228
     10 C          60.9896   89.6703   10.2646 C.ar    1  UNL1        0.1321
     11 BR         59.8545   90.0131    9.3459 Br      1  UNL1       -0.0265
     12 C          61.8176   88.4206   10.2149 C.ar    1  UNL1        0.0818
     13 N          62.8357   88.4951   11.3140 N.ar    1  UNL1       -0.3391
     14 H          63.5152   87.8132   11.5206 H       1  UNL1        0.1672
     15 C          61.6561   87.2942    9.2376 C.ar    1  UNL1        0.0177
     16 C          62.8148   86.3905    8.9365 C.ar    1  UNL1        0.0033
     17 C          62.6531   85.2641    7.9592 C.ar    1  UNL1        0.0262
     18 C          61.3328   85.0414    7.2830 C.ar    1  UNL1        0.1641
     19 C          60.1741   85.9451    7.5842 C.ar    1  UNL1        0.0262
     20 C          60.3357   87.0715    8.5614 C.ar    1  UNL1        0.0033
     21 N          61.1712   83.9149    6.3057 N.2     1  UNL1        0.1168
     22 N          61.3753   84.1587    4.8399 N.2     1  UNL1       -0.0090
     23 N          61.5794   84.4024    3.3739 N.2     1  UNL1       -0.3278
     24 C          66.1147   93.0373   12.0628 C.3     1  UNL1        0.1512
     25 C          68.1996   92.4536   13.4990 C.2     1  UNL1        0.4021
     26 O          68.7389   91.6176   12.3764 O.2     1  UNL1       -0.2264
     27 N          66.8875   93.1635   13.3422 N.am    1  UNL1       -0.2640
     28 H          66.5336   93.7122   14.0790 H       1  UNL1        0.1532
     29 C          68.2758   92.4059   16.0955 C.3     1  UNL1        0.2573
     30 O          68.9723   92.5799   14.7784 O.3     1  UNL1       -0.4306
     31 C          66.4472   93.9190   10.8957 C.3     1  UNL1        0.0270
     32 C          65.8786   95.3048   10.8166 C.3     1  UNL1        0.0022
     33 C          67.3484   93.4149    9.8076 C.3     1  UNL1        0.0022
@<TRIPOS>UNITY_ATOM_ATTR
22 1
charge 1
23 1
charge -1
@<TRIPOS>BOND
     1    29    30    1
     2    30    25    1
     3    25    26    2
     4    25    27   am
     5    24    27    1
     6    24     1    1
     7     1     2    2
     8     1     3   am
     9     3     4    1
    10     4     5    1
    11     5     6    1
    12     6     7    1
    13     7     8    1
    14     8     9   ar
    15     9    10   ar
    16    10    11    1
    17    10    12   ar
    18    12    15    1
    19    15    16   ar
    20    16    17   ar
    21    17    18   ar
    22    18    21    1
    23    21    22    2
    24    22    23    2
    25    18    19   ar
    26    19    20   ar
    27    12    13   ar
    28    24    31    1
    29    31    32    1
    30    31    33    1
    31     7     3    1
    32    13     8   ar
    33    20    15   ar
    34    27    28    1
    35    13    14    1
@<TRIPOS>MOLECULE
*****
 33 35 0 0 0
SMALL
GASTEIGER

@<TRIPOS>ATOM
      1 C          65.7754   91.9611   13.6569 C.2     1  UNL1        0.2439
      2 O          65.5939   91.1454   12.4112 O.2     1  UNL1       -0.2731
      3 N          64.9714   91.6462   14.8834 N.am    1  UNL1       -0.2730
      4 C          65.0440   92.3702   16.1951 C.3     1  UNL1        0.0939
      5 C          64.0712   91.7235   17.1360 C.3     1  UNL1        0.0237
      6 C          63.3974   90.5997   16.4058 C.3     1  UNL1        0.0293
      7 C          63.9538   90.5520   15.0137 C.3     1  UNL1        0.1319
      8 C          63.5614   89.5805   13.9403 C.ar    1  UNL1        0.1358
      9 N          62.9255   89.9274   12.6267 N.ar    1  UNL1       -0.2228
     10 C          62.7071   88.6529   11.8665 C.ar    1  UNL1        0.1321
     11 BR         62.0953   88.5339   10.5021 Br      1  UNL1       -0.0265
     12 C          63.2080   87.5183   12.7102 C.ar    1  UNL1        0.0818
     13 N          63.7360   88.0916   13.9918 N.ar    1  UNL1       -0.3391
     14 H          64.1282   87.5804   14.7362 H       1  UNL1        0.1672
     15 C          63.1850   86.0654   12.3376 C.ar    1  UNL1        0.0177
     16 C          62.7331   85.6491   10.9693 C.ar    1  UNL1        0.0033
     17 C          62.7101   84.1963   10.5968 C.ar    1  UNL1        0.0262
     18 C          63.1390   83.1598   11.5927 C.ar    1  UNL1        0.1641
     19 C          63.5909   83.5762   12.9611 C.ar    1  UNL1        0.0262
     20 C          63.6139   85.0290   13.3335 C.ar    1  UNL1        0.0033
     21 N          63.1159   81.7069   11.2202 N.2     1  UNL1        0.1168
     22 N          62.7107   80.6789   12.2345 N.2     1  UNL1       -0.0090
     23 N          62.3054   79.6508   13.2489 N.2     1  UNL1       -0.3278
     24 C          66.7609   93.0918   13.6760 C.3     1  UNL1        0.1512
     25 C          66.7063   94.4573   11.4664 C.2     1  UNL1        0.4021
     26 O          67.2601   93.2776   10.7237 O.2     1  UNL1       -0.2264
     27 N          66.4568   94.3644   12.9426 N.am    1  UNL1       -0.2640
     28 H          66.0933   95.1386   13.4301 H       1  UNL1        0.1532
     29 C          67.2148   96.1167    9.5331 C.3     1  UNL1        0.2573
     30 O          66.4022   95.7299   10.7331 O.3     1  UNL1       -0.4306
     31 C          68.0506   92.9498   14.4286 C.3     1  UNL1        0.0270
     32 C          68.2823   93.7483   15.6771 C.3     1  UNL1        0.0022
     33 C          69.1089   92.0093   13.9328 C.3     1  UNL1        0.0022
@<TRIPOS>UNITY_ATOM_ATTR
22 1
charge 1
23 1
charge -1
@<TRIPOS>BOND
     1    29    30    1
     2    30    25    1
     3    25    26    2
     4    25    27   am
     5    24    27    1
     6    24     1    1
     7     1     2    2
     8     1     3   am
     9     3     4    1
    10     4     5    1
    11     5     6    1
    12     6     7    1
    13     7     8    1
    14     8     9   ar
    15     9    10   ar
    16    10    11    1
    17    10    12   ar
    18    12    15    1
    19    15    16   ar
    20    16    17   ar
    21    17    18   ar
    22    18    21    1
    23    21    22    2
    24    22    23    2
    25    18    19   ar
    26    19    20   ar
    27    12    13   ar
    28    24    31    1
    29    31    32    1
    30    31    33    1
    31     7     3    1
    32    13     8   ar
    33    20    15   ar
    34    27    28    1
    35    13    14    1
@<TRIPOS>MOLECULE
*****
 33 35 0 0 0
SMALL
GASTEIGER

@<TRIPOS>ATOM
      1 C          65.2533   91.7903   13.2924 C.2     1  UNL1        0.2439
      2 O          64.9326   91.1601   11.9695 O.2     1  UNL1       -0.2731
      3 N          64.6186   91.2662   14.5463 N.am    1  UNL1       -0.2730
      4 C          64.8416   91.7917   15.9335 C.3     1  UNL1        0.0939
      5 C          64.0102   90.9749   16.8778 C.3     1  UNL1        0.0237
      6 C          63.2733   89.9447   16.0742 C.3     1  UNL1        0.0293
      7 C          63.6493   90.1248   14.6334 C.3     1  UNL1        0.1319
      8 C          63.1447   89.3069   13.4817 C.ar    1  UNL1        0.1358
      9 N          63.4251   87.8527   13.2431 N.ar    1  UNL1       -0.2228
     10 C          62.7248   87.4467   11.9803 C.ar    1  UNL1        0.1321
     11 BR         62.7358   86.0779   11.3671 Br      1  UNL1       -0.0265
     12 C          62.0116   88.6499   11.4384 C.ar    1  UNL1        0.0818
     13 N          62.2711   89.7995   12.3663 N.ar    1  UNL1       -0.3391
     14 H          61.9282   90.7165   12.2616 H       1  UNL1        0.1672
     15 C          61.1841   88.6955   10.1880 C.ar    1  UNL1        0.0177
     16 C          60.5351   87.4454    9.6722 C.ar    1  UNL1        0.0033
     17 C          59.7076   87.4911    8.4219 C.ar    1  UNL1        0.0262
     18 C          59.5292   88.7867    7.6875 C.ar    1  UNL1        0.1641
     19 C          60.1782   90.0368    8.2034 C.ar    1  UNL1        0.0262
     20 C          61.0056   89.9912    9.4536 C.ar    1  UNL1        0.0033
     21 N          58.7017   88.8323    6.4372 N.2     1  UNL1        0.1168
     22 N          58.4921   90.1349    5.7236 N.2     1  UNL1       -0.0090
     23 N          58.2825   91.4376    5.0099 N.2     1  UNL1       -0.3278
     24 C          66.2089   92.9445   13.3614 C.3     1  UNL1        0.1512
     25 C          66.4795   94.5225   11.3152 C.2     1  UNL1        0.4021
     26 O          67.4001   93.5290   10.6708 O.2     1  UNL1       -0.2264
     27 N          65.8838   94.2303   12.6605 N.am    1  UNL1       -0.2640
     28 H          65.2796   94.8823   13.0835 H       1  UNL1        0.1532
     29 C          66.5725   96.0117    9.1883 C.3     1  UNL1        0.2573
     30 O          66.1544   95.8083   10.6145 O.3     1  UNL1       -0.4306
     31 C          67.4895   92.8129   14.1312 C.3     1  UNL1        0.0270
     32 C          68.5250   91.8171   13.6999 C.3     1  UNL1        0.0022
     33 C          67.7347   93.6772   15.3325 C.3     1  UNL1        0.0022
@<TRIPOS>UNITY_ATOM_ATTR
22 1
charge 1
23 1
charge -1
@<TRIPOS>BOND
     1    29    30    1
     2    30    25    1
     3    25    26    2
     4    25    27   am
     5    24    27    1
     6    24     1    1
     7     1     2    2
     8     1     3   am
     9     3     4    1
    10     4     5    1
    11     5     6    1
    12     6     7    1
    13     7     8    1
    14     8     9   ar
    15     9    10   ar
    16    10    11    1
    17    10    12   ar
    18    12    15    1
    19    15    16   ar
    20    16    17   ar
    21    17    18   ar
    22    18    21    1
    23    21    22    2
    24    22    23    2
    25    18    19   ar
    26    19    20   ar
    27    12    13   ar
    28    24    31    1
    29    31    32    1
    30    31    33    1
    31     7     3    1
    32    13     8   ar
    33    20    15   ar
    34    27    28    1
    35    13    14    1
@<TRIPOS>MOLECULE
*****
 33 35 0 0 0
SMALL
GASTEIGER

@<TRIPOS>ATOM
      1 C          62.6187   86.3773   11.8379 C.2     1  UNL1        0.2439
      2 O          63.5809   87.3289   12.4850 O.2     1  UNL1       -0.2731
      3 N          61.7283   86.8505   10.7274 N.am    1  UNL1       -0.2730
      4 C          60.7219   86.0187    9.9890 C.3     1  UNL1        0.0939
      5 C          60.0595   86.8927    8.9656 C.3     1  UNL1        0.0237
      6 C          60.6565   88.2647    9.0716 C.3     1  UNL1        0.0293
      7 C          61.6878   88.2386   10.1604 C.3     1  UNL1        0.1319
      8 C          62.5307   89.3972   10.6043 C.ar    1  UNL1        0.1358
      9 N          62.9019   90.5879    9.7710 N.ar    1  UNL1       -0.2228
     10 C          63.7510   91.4952   10.6112 C.ar    1  UNL1        0.1321
     11 BR         64.3427   92.8028   10.1752 Br      1  UNL1       -0.0265
     12 C          63.9046   90.8652   11.9638 C.ar    1  UNL1        0.0818
     13 N          63.1504   89.5686   11.9595 N.ar    1  UNL1       -0.3391
     14 H          63.0753   88.9404   12.7138 H       1  UNL1        0.1672
     15 C          64.6768   91.4323   13.1180 C.ar    1  UNL1        0.0177
     16 C          64.2827   91.0905   14.5243 C.ar    1  UNL1        0.0033
     17 C          65.0549   91.6576   15.6785 C.ar    1  UNL1        0.0262
     18 C          66.2212   92.5664   15.4263 C.ar    1  UNL1        0.1641
     19 C          66.6154   92.9082   14.0200 C.ar    1  UNL1        0.0262
     20 C          65.8432   92.3411   12.8658 C.ar    1  UNL1        0.0033
     21 N          66.9934   93.1335   16.5805 N.2     1  UNL1        0.1168
     22 N          68.3253   93.7822   16.3455 N.2     1  UNL1       -0.0090
     23 N          69.6572   94.4310   16.1105 N.2     1  UNL1       -0.3278
     24 C          62.5469   84.9525   12.3014 C.3     1  UNL1        0.1512
     25 C          63.0244   84.7472   14.8469 C.2     1  UNL1        0.4021
     26 O          64.4447   85.1702   14.6147 O.2     1  UNL1       -0.2264
     27 N          62.0756   84.6384   13.6903 N.am    1  UNL1       -0.2640
     28 H          61.1434   84.3607   13.8428 H       1  UNL1        0.1532
     29 C          62.4292   85.5296   17.2519 C.3     1  UNL1        0.2573
     30 O          62.5530   84.4331   16.2358 O.3     1  UNL1       -0.4306
     31 C          62.9465   83.8418   11.3758 C.3     1  UNL1        0.0270
     32 C          63.6207   84.1568   10.0734 C.3     1  UNL1        0.0022
     33 C          62.6719   82.4160   11.7526 C.3     1  UNL1        0.0022
@<TRIPOS>UNITY_ATOM_ATTR
22 1
charge 1
23 1
charge -1
@<TRIPOS>BOND
     1    29    30    1
     2    30    25    1
     3    25    26    2
     4    25    27   am
     5    24    27    1
     6    24     1    1
     7     1     2    2
     8     1     3   am
     9     3     4    1
    10     4     5    1
    11     5     6    1
    12     6     7    1
    13     7     8    1
    14     8     9   ar
    15     9    10   ar
    16    10    11    1
    17    10    12   ar
    18    12    15    1
    19    15    16   ar
    20    16    17   ar
    21    17    18   ar
    22    18    21    1
    23    21    22    2
    24    22    23    2
    25    18    19   ar
    26    19    20   ar
    27    12    13   ar
    28    24    31    1
    29    31    32    1
    30    31    33    1
    31     7     3    1
    32    13     8   ar
    33    20    15   ar
    34    27    28    1
    35    13    14    1
@<TRIPOS>MOLECULE
*****
 33 35 0 0 0
SMALL
GASTEIGER

@<TRIPOS>ATOM
      1 C          61.7936   93.9126   -1.2663 C.2     1  UNL1        0.2439
      2 O          60.8463   94.0277   -2.4236 O.2     1  UNL1       -0.2731
      3 N          61.2844   93.4931    0.0809 N.am    1  UNL1       -0.2730
      4 C          62.1079   93.3350    1.3246 C.3     1  UNL1        0.0939
      5 C          61.1949   92.9022    2.4332 C.3     1  UNL1        0.0237
      6 C          59.8071   92.7929    1.8746 C.3     1  UNL1        0.0293
      7 C          59.8624   93.1580    0.4208 C.3     1  UNL1        0.1319
      8 C          58.6999   93.1837   -0.5267 C.ar    1  UNL1        0.1358
      9 N          57.5838   94.1860   -0.5260 N.ar    1  UNL1       -0.2228
     10 C          56.6434   93.8333   -1.6401 C.ar    1  UNL1        0.1321
     11 BR         55.3886   94.5713   -2.0016 Br      1  UNL1       -0.0265
     12 C          57.1782   92.6131   -2.3294 C.ar    1  UNL1        0.0818
     13 N          58.4492   92.2116   -1.6412 N.ar    1  UNL1       -0.3391
     14 H          59.0188   91.4447   -1.8792 H       1  UNL1        0.1672
     15 C          56.5521   91.9166   -3.5011 C.ar    1  UNL1        0.0177
     16 C          55.7271   90.6823   -3.2867 C.ar    1  UNL1        0.0033
     17 C          55.1010   89.9859   -4.4583 C.ar    1  UNL1        0.0262
     18 C          55.2998   90.5237   -5.8444 C.ar    1  UNL1        0.1641
     19 C          56.1248   91.7579   -6.0588 C.ar    1  UNL1        0.0262
     20 C          56.7509   92.4544   -4.8872 C.ar    1  UNL1        0.0033
     21 N          54.6736   89.8272   -7.0161 N.2     1  UNL1        0.1168
     22 N          53.1815   89.8092   -7.1682 N.2     1  UNL1       -0.0090
     23 N          51.6893   89.7912   -7.3203 N.2     1  UNL1       -0.3278
     24 C          63.2501   94.2170   -1.4560 C.3     1  UNL1        0.1512
     25 C          64.1824   93.3026   -3.7021 C.2     1  UNL1        0.4021
     26 O          63.3628   94.3102   -4.4525 O.2     1  UNL1       -0.2264
     27 N          64.1260   93.2560   -2.2039 N.am    1  UNL1       -0.2640
     28 H          64.6639   92.5947   -1.7113 H       1  UNL1        0.1532
     29 C          64.7898   92.0521   -5.8969 C.3     1  UNL1        0.2573
     30 O          65.0583   92.3416   -4.4498 O.3     1  UNL1       -0.4306
     31 C          63.8306   95.4825   -0.8980 C.3     1  UNL1        0.0270
     32 C          65.2811   95.5394   -0.5200 C.3     1  UNL1        0.0022
     33 C          62.9607   96.6913   -0.7178 C.3     1  UNL1        0.0022
@<TRIPOS>UNITY_ATOM_ATTR
22 1
charge 1
23 1
charge -1
@<TRIPOS>BOND
     1    29    30    1
     2    30    25    1
     3    25    26    2
     4    25    27   am
     5    24    27    1
     6    24     1    1
     7     1     2    2
     8     1     3   am
     9     3     4    1
    10     4     5    1
    11     5     6    1
    12     6     7    1
    13     7     8    1
    14     8     9   ar
    15     9    10   ar
    16    10    11    1
    17    10    12   ar
    18    12    15    1
    19    15    16   ar
    20    16    17   ar
    21    17    18   ar
    22    18    21    1
    23    21    22    2
    24    22    23    2
    25    18    19   ar
    26    19    20   ar
    27    12    13   ar
    28    24    31    1
    29    31    32    1
    30    31    33    1
    31     7     3    1
    32    13     8   ar
    33    20    15   ar
    34    27    28    1
    35    13    14    1
