@<TRIPOS>MOLECULE
*****
 29 32 0 0 0
SMALL
GASTEIGER

@<TRIPOS>ATOM
      1 C          61.9841   89.8169   10.3324 C.ar    1  UNL1        0.1648
      2 C          62.4730   88.4841   10.8166 C.ar    1  UNL1        0.0467
      3 C          61.8736   87.2219   10.2711 C.ar    1  UNL1        0.0926
      4 C          60.7852   87.2925    9.2413 C.ar    1  UNL1        0.1702
      5 N          60.0096   86.2264    8.5260 N.ar    1  UNL1       -0.2033
      6 C          59.0413   86.9003    7.5996 C.ar    1  UNL1        0.2213
      7 N          59.2185   88.3830    7.7424 N.ar    1  UNL1       -0.1408
      8 N          60.2963   88.6254    8.7571 N.ar    1  UNL1       -0.2060
      9 C          60.8957   89.8875    9.3026 C.ar    1  UNL1        0.1395
     10 C          62.3626   85.8890   10.7554 C.2     1  UNL1        0.2536
     11 O          63.0250   84.9410    9.8002 O.2     1  UNL1       -0.2697
     12 N          62.1892   85.5044   12.1948 N.am    1  UNL1       -0.2657
     13 H          61.7544   86.1266   12.8217 H       1  UNL1        0.1566
     14 C          62.6782   84.1715   12.6790 C.ar    1  UNL1        0.1345
     15 C          62.4838   82.9486   11.8325 C.ar    1  UNL1        0.0368
     16 C          62.9728   81.6158   12.3167 C.ar    1  UNL1        0.0341
     17 C          63.6563   81.5059   13.6475 C.ar    1  UNL1        0.1593
     18 F          64.1454   80.1731   14.1317 F       1  UNL1       -0.2025
     19 C          63.8507   82.7289   14.4940 C.ar    1  UNL1        0.1298
     20 N          63.3617   84.0617   14.0097 N.ar    1  UNL1       -0.2267
     21 O          62.5835   91.0791   10.8779 O.3     1  UNL1       -0.4503
     22 C          63.8963   90.1452   14.5048 C.ar    1  UNL1        0.0906
     23 C          65.1710   90.9340   14.5567 C.ar    1  UNL1        0.1093
     24 N          65.5833   91.7713   13.3824 N.ar    1  UNL1       -0.2384
     25 C          64.7208   91.8197   12.1561 C.ar    1  UNL1        0.1363
     26 C          63.4460   91.0308   12.1041 C.ar    1  UNL1        0.1651
     27 C          63.0338   90.1936   13.2785 C.ar    1  UNL1        0.0509
     28 N          63.0715   88.4706   16.8533 N.1     1  UNL1       -0.1908
     29 C          63.4840   89.3079   15.6791 C.1     1  UNL1        0.1021
@<TRIPOS>BOND
     1    28    29    3
     2    29    22    1
     3    22    23   ar
     4    23    24   ar
     5    24    25   ar
     6    25    26   ar
     7    26    21    1
     8    21     1    1
     9     1     2   ar
    10     2     3   ar
    11     3    10    1
    12    10    11    2
    13    10    12   am
    14    12    14    1
    15    14    15   ar
    16    15    16   ar
    17    16    17   ar
    18    17    18    1
    19    17    19   ar
    20    19    20   ar
    21     3     4   ar
    22     4     5   ar
    23     5     6   ar
    24     6     7   ar
    25     7     8   ar
    26     8     9   ar
    27    26    27   ar
    28    27    22   ar
    29     9     1   ar
    30    20    14   ar
    31     8     4   ar
    32    12    13    1
@<TRIPOS>MOLECULE
*****
 29 32 0 0 0
SMALL
GASTEIGER

@<TRIPOS>ATOM
      1 C          63.9128   84.8445   14.5567 C.ar    1  UNL1        0.1648
      2 C          63.3457   85.5349   13.3519 C.ar    1  UNL1        0.0467
      3 C          62.8869   84.7294   12.1725 C.ar    1  UNL1        0.0926
      4 C          62.9953   83.2336   12.1981 C.ar    1  UNL1        0.1702
      5 N          62.6277   82.1833   11.1922 N.ar    1  UNL1       -0.2033
      6 C          62.9677   80.8438   11.7755 C.ar    1  UNL1        0.2213
      7 N          63.5454   81.0662   13.1418 N.ar    1  UNL1       -0.1408
      8 N          63.5625   82.5432   13.4030 N.ar    1  UNL1       -0.2060
      9 C          64.0213   83.3487   14.5823 C.ar    1  UNL1        0.1395
     10 C          62.3197   85.4199   10.9677 C.2     1  UNL1        0.2536
     11 O          62.8680   85.1201    9.6041 O.2     1  UNL1       -0.2697
     12 N          61.2043   86.4101   11.1265 N.am    1  UNL1       -0.2657
     13 H          60.8445   86.6069   12.0215 H       1  UNL1        0.1566
     14 C          60.6372   87.1006    9.9216 C.ar    1  UNL1        0.1345
     15 C          60.7670   88.5881    9.7792 C.ar    1  UNL1        0.0368
     16 C          60.1999   89.2785    8.5743 C.ar    1  UNL1        0.0341
     17 C          59.5029   88.4813    7.5118 C.ar    1  UNL1        0.1593
     18 F          58.9358   89.1717    6.3069 F       1  UNL1       -0.2025
     19 C          59.3731   86.9937    7.6542 C.ar    1  UNL1        0.1298
     20 N          59.9403   86.3034    8.8591 N.ar    1  UNL1       -0.2267
     21 O          64.3716   85.6500   15.7361 O.3     1  UNL1       -0.4503
     22 C          64.0753   89.5135   14.8783 C.ar    1  UNL1        0.0906
     23 C          63.2773   90.0036   16.0499 C.ar    1  UNL1        0.1093
     24 N          62.8439   89.0426   17.1171 N.ar    1  UNL1       -0.2384
     25 C          63.2087   87.5914   17.0124 C.ar    1  UNL1        0.1363
     26 C          64.0068   87.1012   15.8407 C.ar    1  UNL1        0.1651
     27 C          64.4401   88.0622   14.7737 C.ar    1  UNL1        0.0509
     28 N          64.9418   91.4354   12.7440 N.1     1  UNL1       -0.1908
     29 C          64.5086   90.4745   13.8112 C.1     1  UNL1        0.1021
@<TRIPOS>BOND
     1    28    29    3
     2    29    22    1
     3    22    23   ar
     4    23    24   ar
     5    24    25   ar
     6    25    26   ar
     7    26    21    1
     8    21     1    1
     9     1     2   ar
    10     2     3   ar
    11     3    10    1
    12    10    11    2
    13    10    12   am
    14    12    14    1
    15    14    15   ar
    16    15    16   ar
    17    16    17   ar
    18    17    18    1
    19    17    19   ar
    20    19    20   ar
    21     3     4   ar
    22     4     5   ar
    23     5     6   ar
    24     6     7   ar
    25     7     8   ar
    26     8     9   ar
    27    26    27   ar
    28    27    22   ar
    29     9     1   ar
    30    20    14   ar
    31     8     4   ar
    32    12    13    1
@<TRIPOS>MOLECULE
*****
 29 32 0 0 0
SMALL
GASTEIGER

@<TRIPOS>ATOM
      1 C          65.6817   92.3746   13.2018 C.ar    1  UNL1        0.1648
      2 C          64.8666   91.6806   12.1512 C.ar    1  UNL1        0.0467
      3 C          63.7718   90.7372   12.5530 C.ar    1  UNL1        0.0926
      4 C          63.4921   90.4879   14.0054 C.ar    1  UNL1        0.1702
      5 N          62.4855   89.6185   14.6989 N.ar    1  UNL1       -0.2033
      6 C          62.6785   89.7753   16.1781 C.ar    1  UNL1        0.2213
      7 N          63.8045   90.7415   16.3989 N.ar    1  UNL1       -0.1408
      8 N          64.3073   91.1819   15.0561 N.ar    1  UNL1       -0.2060
      9 C          65.4021   92.1253   14.6543 C.ar    1  UNL1        0.1395
     10 C          62.9566   90.0432   11.5022 C.2     1  UNL1        0.2536
     11 O          62.5547   90.7782   10.2580 O.2     1  UNL1       -0.2697
     12 N          62.5435   88.6143   11.6958 N.am    1  UNL1       -0.2657
     13 H          62.8073   88.1319   12.5125 H       1  UNL1        0.1566
     14 C          61.7284   87.9204   10.6451 C.ar    1  UNL1        0.1345
     15 C          62.3568   86.8654    9.7836 C.ar    1  UNL1        0.0368
     16 C          61.5417   86.1715    8.7328 C.ar    1  UNL1        0.0341
     17 C          60.0981   86.5326    8.5436 C.ar    1  UNL1        0.1593
     18 F          59.2830   85.8387    7.4928 F       1  UNL1       -0.2025
     19 C          59.4697   87.5875    9.4051 C.ar    1  UNL1        0.1298
     20 N          60.2849   88.2814   10.4558 N.ar    1  UNL1       -0.2267
     21 O          66.7766   93.3180   12.8000 O.3     1  UNL1       -0.4503
     22 C          67.1841   94.5957    9.0648 C.ar    1  UNL1        0.0906
     23 C          68.0896   93.5410    8.5016 C.ar    1  UNL1        0.1093
     24 N          68.5576   92.4118    9.3711 N.ar    1  UNL1       -0.2384
     25 C          68.1199   92.3375   10.8039 C.ar    1  UNL1        0.1363
     26 C          67.2143   93.3923   11.3673 C.ar    1  UNL1        0.1651
     27 C          66.7464   94.5214   10.4977 C.ar    1  UNL1        0.0509
     28 N          66.2480   96.8541    7.3260 N.1     1  UNL1       -0.1908
     29 C          66.7161   95.7249    8.1954 C.1     1  UNL1        0.1021
@<TRIPOS>BOND
     1    28    29    3
     2    29    22    1
     3    22    23   ar
     4    23    24   ar
     5    24    25   ar
     6    25    26   ar
     7    26    21    1
     8    21     1    1
     9     1     2   ar
    10     2     3   ar
    11     3    10    1
    12    10    11    2
    13    10    12   am
    14    12    14    1
    15    14    15   ar
    16    15    16   ar
    17    16    17   ar
    18    17    18    1
    19    17    19   ar
    20    19    20   ar
    21     3     4   ar
    22     4     5   ar
    23     5     6   ar
    24     6     7   ar
    25     7     8   ar
    26     8     9   ar
    27    26    27   ar
    28    27    22   ar
    29     9     1   ar
    30    20    14   ar
    31     8     4   ar
    32    12    13    1
@<TRIPOS>MOLECULE
*****
 29 32 0 0 0
SMALL
GASTEIGER

@<TRIPOS>ATOM
      1 C          62.0226   89.7950   10.4015 C.ar    1  UNL1        0.1648
      2 C          62.4951   88.4536   10.8783 C.ar    1  UNL1        0.0467
      3 C          61.8903   87.2017   10.3153 C.ar    1  UNL1        0.0926
      4 C          60.8128   87.2913    9.2755 C.ar    1  UNL1        0.1702
      5 N          60.0351   86.2385    8.5428 N.ar    1  UNL1       -0.2033
      6 C          59.0819   86.9293    7.6132 C.ar    1  UNL1        0.2213
      7 N          59.2705   88.4090    7.7714 N.ar    1  UNL1       -0.1408
      8 N          60.3403   88.6327    8.7988 N.ar    1  UNL1       -0.2060
      9 C          60.9452   89.8845    9.3618 C.ar    1  UNL1        0.1395
     10 C          62.3629   85.8603   10.7921 C.2     1  UNL1        0.2536
     11 O          63.0074   84.9068    9.8301 O.2     1  UNL1       -0.2697
     12 N          62.1909   85.4724   12.2308 N.am    1  UNL1       -0.2657
     13 H          61.7679   86.0983   12.8622 H       1  UNL1        0.1566
     14 C          62.6635   84.1310   12.7076 C.ar    1  UNL1        0.1345
     15 C          62.4705   82.9182   11.8463 C.ar    1  UNL1        0.0368
     16 C          62.9431   81.5768   12.3230 C.ar    1  UNL1        0.0341
     17 C          63.6089   81.4482   13.6611 C.ar    1  UNL1        0.1593
     18 F          64.0815   80.1068   14.1379 F       1  UNL1       -0.2025
     19 C          63.8019   82.6611   14.5224 C.ar    1  UNL1        0.1298
     20 N          63.3293   84.0025   14.0456 N.ar    1  UNL1       -0.2267
     21 O          62.6275   91.0469   10.9645 O.3     1  UNL1       -0.4503
     22 C          65.4386   91.5602   13.7184 C.ar    1  UNL1        0.0906
     23 C          64.7870   90.9248   14.9106 C.ar    1  UNL1        0.1093
     24 N          63.4154   90.3300   14.7875 N.ar    1  UNL1       -0.2384
     25 C          62.6956   90.3707   13.4722 C.ar    1  UNL1        0.1363
     26 C          63.3473   91.0062   12.2799 C.ar    1  UNL1        0.1651
     27 C          64.7188   91.6009   12.4030 C.ar    1  UNL1        0.0509
     28 N          68.1817   92.7498   13.9643 N.1     1  UNL1       -0.1908
     29 C          66.8102   92.1550   13.8414 C.1     1  UNL1        0.1021
@<TRIPOS>BOND
     1    28    29    3
     2    29    22    1
     3    22    23   ar
     4    23    24   ar
     5    24    25   ar
     6    25    26   ar
     7    26    21    1
     8    21     1    1
     9     1     2   ar
    10     2     3   ar
    11     3    10    1
    12    10    11    2
    13    10    12   am
    14    12    14    1
    15    14    15   ar
    16    15    16   ar
    17    16    17   ar
    18    17    18    1
    19    17    19   ar
    20    19    20   ar
    21     3     4   ar
    22     4     5   ar
    23     5     6   ar
    24     6     7   ar
    25     7     8   ar
    26     8     9   ar
    27    26    27   ar
    28    27    22   ar
    29     9     1   ar
    30    20    14   ar
    31     8     4   ar
    32    12    13    1
@<TRIPOS>MOLECULE
*****
 29 32 0 0 0
SMALL
GASTEIGER

@<TRIPOS>ATOM
      1 C          63.0749   90.5595   12.0964 C.ar    1  UNL1        0.1648
      2 C          63.3377   89.1861   12.6391 C.ar    1  UNL1        0.0467
      3 C          62.6830   87.9926   12.0089 C.ar    1  UNL1        0.0926
      4 C          61.7655   88.1727   10.8360 C.ar    1  UNL1        0.1702
      5 N          60.9834   87.1918   10.0137 N.ar    1  UNL1       -0.2033
      6 C          60.2373   87.9591    8.9627 C.ar    1  UNL1        0.2213
      7 N          60.5581   89.4142    9.1355 N.ar    1  UNL1       -0.1408
      8 N          61.5027   89.5462   10.2933 N.ar    1  UNL1       -0.2060
      9 C          62.1574   90.7396   10.9235 C.ar    1  UNL1        0.1395
     10 C          62.9459   86.6192   12.5517 C.2     1  UNL1        0.2536
     11 O          63.8954   86.4350   13.6982 O.2     1  UNL1       -0.2697
     12 N          62.2594   85.4301   11.9479 N.am    1  UNL1       -0.2657
     13 H          61.6362   85.5510   11.1954 H       1  UNL1        0.1566
     14 C          62.5223   84.0567   12.4907 C.ar    1  UNL1        0.1345
     15 C          62.9556   82.9559   11.5684 C.ar    1  UNL1        0.0368
     16 C          63.2185   81.5825   12.1112 C.ar    1  UNL1        0.0341
     17 C          63.0482   81.3099   13.5765 C.ar    1  UNL1        0.1593
     18 F          63.3112   79.9365   14.1193 F       1  UNL1       -0.2025
     19 C          62.6150   82.4106   14.4988 C.ar    1  UNL1        0.1298
     20 N          62.3520   83.7840   13.9558 N.ar    1  UNL1       -0.2267
     21 O          63.7296   91.7530   12.7266 O.3     1  UNL1       -0.4503
     22 C          66.8009   93.2311   10.6937 C.ar    1  UNL1        0.0906
     23 C          67.9409   92.8666   11.5976 C.ar    1  UNL1        0.1093
     24 N          67.6773   92.1309   12.8780 N.ar    1  UNL1       -0.2384
     25 C          66.2735   91.7597   13.2543 C.ar    1  UNL1        0.1363
     26 C          65.1333   92.1242   12.3503 C.ar    1  UNL1        0.1651
     27 C          65.3970   92.8599   11.0700 C.ar    1  UNL1        0.0509
     28 N          67.3279   94.7027    8.1331 N.1     1  UNL1       -0.1908
     29 C          67.0644   93.9668    9.4133 C.1     1  UNL1        0.1021
@<TRIPOS>BOND
     1    28    29    3
     2    29    22    1
     3    22    23   ar
     4    23    24   ar
     5    24    25   ar
     6    25    26   ar
     7    26    21    1
     8    21     1    1
     9     1     2   ar
    10     2     3   ar
    11     3    10    1
    12    10    11    2
    13    10    12   am
    14    12    14    1
    15    14    15   ar
    16    15    16   ar
    17    16    17   ar
    18    17    18    1
    19    17    19   ar
    20    19    20   ar
    21     3     4   ar
    22     4     5   ar
    23     5     6   ar
    24     6     7   ar
    25     7     8   ar
    26     8     9   ar
    27    26    27   ar
    28    27    22   ar
    29     9     1   ar
    30    20    14   ar
    31     8     4   ar
    32    12    13    1
@<TRIPOS>MOLECULE
*****
 29 32 0 0 0
SMALL
GASTEIGER

@<TRIPOS>ATOM
      1 C          62.9636   90.6097   11.9189 C.ar    1  UNL1        0.1648
      2 C          63.2398   89.2534   12.4968 C.ar    1  UNL1        0.0467
      3 C          62.6434   88.0320   11.8623 C.ar    1  UNL1        0.0926
      4 C          61.7708   88.1671   10.6497 C.ar    1  UNL1        0.1702
      5 N          61.0496   87.1514    9.8141 N.ar    1  UNL1       -0.2033
      6 C          60.3276   87.8801    8.7197 C.ar    1  UNL1        0.2213
      7 N          60.6026   89.3461    8.8789 N.ar    1  UNL1       -0.1408
      8 N          61.4946   89.5234   10.0718 N.ar    1  UNL1       -0.2060
      9 C          62.0910   90.7447   10.7064 C.ar    1  UNL1        0.1395
     10 C          62.9197   86.6757   12.4403 C.2     1  UNL1        0.2536
     11 O          63.8888   86.5275   13.5756 O.2     1  UNL1       -0.2697
     12 N          62.2270   85.4676   11.8830 N.am    1  UNL1       -0.2657
     13 H          61.5909   85.5649   11.1378 H       1  UNL1        0.1566
     14 C          62.5033   84.1113   12.4610 C.ar    1  UNL1        0.1345
     15 C          62.9303   82.9868   11.5648 C.ar    1  UNL1        0.0368
     16 C          63.2066   81.6306   12.1429 C.ar    1  UNL1        0.0341
     17 C          63.0559   81.3988   13.6172 C.ar    1  UNL1        0.1593
     18 F          63.3323   80.0425   14.1953 F       1  UNL1       -0.2025
     19 C          62.6290   82.5232   14.5135 C.ar    1  UNL1        0.1298
     20 N          62.3526   83.8795   13.9353 N.ar    1  UNL1       -0.2267
     21 O          63.5600   91.8310   12.5535 O.3     1  UNL1       -0.4503
     22 C          67.3172   92.2479   13.7619 C.ar    1  UNL1        0.0906
     23 C          68.0130   92.4725   12.4522 C.ar    1  UNL1        0.1093
     24 N          67.2244   92.4833   11.1762 N.ar    1  UNL1       -0.2384
     25 C          65.7402   92.2695   11.2100 C.ar    1  UNL1        0.1363
     26 C          65.0443   92.0449   12.5197 C.ar    1  UNL1        0.1651
     27 C          65.8328   92.0340   13.7957 C.ar    1  UNL1        0.0509
     28 N          68.8940   92.2261   16.3140 N.1     1  UNL1       -0.1908
     29 C          68.1056   92.2370   15.0380 C.1     1  UNL1        0.1021
@<TRIPOS>BOND
     1    28    29    3
     2    29    22    1
     3    22    23   ar
     4    23    24   ar
     5    24    25   ar
     6    25    26   ar
     7    26    21    1
     8    21     1    1
     9     1     2   ar
    10     2     3   ar
    11     3    10    1
    12    10    11    2
    13    10    12   am
    14    12    14    1
    15    14    15   ar
    16    15    16   ar
    17    16    17   ar
    18    17    18    1
    19    17    19   ar
    20    19    20   ar
    21     3     4   ar
    22     4     5   ar
    23     5     6   ar
    24     6     7   ar
    25     7     8   ar
    26     8     9   ar
    27    26    27   ar
    28    27    22   ar
    29     9     1   ar
    30    20    14   ar
    31     8     4   ar
    32    12    13    1
@<TRIPOS>MOLECULE
*****
 29 32 0 0 0
SMALL
GASTEIGER

@<TRIPOS>ATOM
      1 C          62.3496   85.4447   10.0902 C.ar    1  UNL1        0.1648
      2 C          62.7198   86.4916   11.0986 C.ar    1  UNL1        0.0467
      3 C          62.1881   87.8874   10.9604 C.ar    1  UNL1        0.0926
      4 C          61.2863   88.2363    9.8136 C.ar    1  UNL1        0.1702
      5 N          60.6136   89.5178    9.4197 N.ar    1  UNL1       -0.2033
      6 C          59.8276   89.2629    8.1678 C.ar    1  UNL1        0.2213
      7 N          60.0146   87.8238    7.7880 N.ar    1  UNL1       -0.1408
      8 N          60.9161   87.1894    8.8052 N.ar    1  UNL1       -0.2060
      9 C          61.4478   85.7936    8.9434 C.ar    1  UNL1        0.1395
     10 C          62.5583   88.9343   11.9689 C.2     1  UNL1        0.2536
     11 O          62.0386   90.3337   11.8224 O.2     1  UNL1       -0.2697
     12 N          63.4482   88.5817   13.1237 N.am    1  UNL1       -0.2657
     13 H          63.7893   87.6632   13.2198 H       1  UNL1        0.1566
     14 C          63.8183   89.6286   14.1322 C.ar    1  UNL1        0.1345
     15 C          64.9724   90.5497   13.8680 C.ar    1  UNL1        0.0368
     16 C          65.3425   91.5966   14.8765 C.ar    1  UNL1        0.0341
     17 C          64.5585   91.7225   16.1492 C.ar    1  UNL1        0.1593
     18 F          64.9287   92.7694   17.1576 F       1  UNL1       -0.2025
     19 C          63.4045   90.8014   16.4134 C.ar    1  UNL1        0.1298
     20 N          63.0344   89.7545   15.4048 N.ar    1  UNL1       -0.2267
     21 O          62.8813   84.0489   10.2284 O.3     1  UNL1       -0.4503
     22 C          62.6496   83.4952   14.1514 C.ar    1  UNL1        0.0906
     23 C          62.8296   82.0087   14.2390 C.ar    1  UNL1        0.1093
     24 N          63.0269   81.2021   12.9898 N.ar    1  UNL1       -0.2384
     25 C          63.0442   81.8822   11.6529 C.ar    1  UNL1        0.1363
     26 C          62.8641   83.3688   11.5652 C.ar    1  UNL1        0.1651
     27 C          62.6668   84.1753   12.8145 C.ar    1  UNL1        0.0509
     28 N          62.2548   85.1085   16.6497 N.1     1  UNL1       -0.1908
     29 C          62.4522   84.3018   15.4006 C.1     1  UNL1        0.1021
@<TRIPOS>BOND
     1    28    29    3
     2    29    22    1
     3    22    23   ar
     4    23    24   ar
     5    24    25   ar
     6    25    26   ar
     7    26    21    1
     8    21     1    1
     9     1     2   ar
    10     2     3   ar
    11     3    10    1
    12    10    11    2
    13    10    12   am
    14    12    14    1
    15    14    15   ar
    16    15    16   ar
    17    16    17   ar
    18    17    18    1
    19    17    19   ar
    20    19    20   ar
    21     3     4   ar
    22     4     5   ar
    23     5     6   ar
    24     6     7   ar
    25     7     8   ar
    26     8     9   ar
    27    26    27   ar
    28    27    22   ar
    29     9     1   ar
    30    20    14   ar
    31     8     4   ar
    32    12    13    1
@<TRIPOS>MOLECULE
*****
 29 32 0 0 0
SMALL
GASTEIGER

@<TRIPOS>ATOM
      1 C          63.9627   90.3202   15.1289 C.ar    1  UNL1        0.1648
      2 C          63.2271   89.8367   13.9144 C.ar    1  UNL1        0.0467
      3 C          63.4988   90.4577   12.5762 C.ar    1  UNL1        0.0926
      4 C          64.5061   91.5622   12.4527 C.ar    1  UNL1        0.1702
      5 N          64.9811   92.3602   11.2748 N.ar    1  UNL1       -0.2033
      6 C          66.0103   93.3369   11.7613 C.ar    1  UNL1        0.2213
      7 N          66.1714   93.1426   13.2399 N.ar    1  UNL1       -0.1408
      8 N          65.2418   92.0457   13.6672 N.ar    1  UNL1       -0.2060
      9 C          64.9700   91.4247   15.0053 C.ar    1  UNL1        0.1395
     10 C          62.7631   89.9741   11.3617 C.2     1  UNL1        0.2536
     11 O          62.8492   90.7435   10.0770 O.2     1  UNL1       -0.2697
     12 N          61.9414   88.7212   11.4320 N.am    1  UNL1       -0.2657
     13 H          61.8849   88.2162   12.2753 H       1  UNL1        0.1566
     14 C          61.2057   88.2377   10.2175 C.ar    1  UNL1        0.1345
     15 C          61.2510   86.7863    9.8416 C.ar    1  UNL1        0.0368
     16 C          60.5153   86.3028    8.6271 C.ar    1  UNL1        0.0341
     17 C          59.7344   87.2708    7.7884 C.ar    1  UNL1        0.1593
     18 F          58.9988   86.7873    6.5739 F       1  UNL1       -0.2025
     19 C          59.6892   88.7222    8.1643 C.ar    1  UNL1        0.1298
     20 N          60.4249   89.2056    9.3789 N.ar    1  UNL1       -0.2267
     21 O          63.6910   89.6992   16.4671 O.3     1  UNL1       -0.4503
     22 C          63.6904   85.8150   15.6524 C.ar    1  UNL1        0.0906
     23 C          62.8386   85.2910   16.7702 C.ar    1  UNL1        0.1093
     24 N          62.2709   86.2364   17.7872 N.ar    1  UNL1       -0.2384
     25 C          62.5550   87.7057   17.6861 C.ar    1  UNL1        0.1363
     26 C          63.4069   88.2298   16.5681 C.ar    1  UNL1        0.1651
     27 C          63.9746   87.2845   15.5513 C.ar    1  UNL1        0.0509
     28 N          64.8260   83.9246   13.6184 N.1     1  UNL1       -0.1908
     29 C          64.2582   84.8698   14.6354 C.1     1  UNL1        0.1021
@<TRIPOS>BOND
     1    28    29    3
     2    29    22    1
     3    22    23   ar
     4    23    24   ar
     5    24    25   ar
     6    25    26   ar
     7    26    21    1
     8    21     1    1
     9     1     2   ar
    10     2     3   ar
    11     3    10    1
    12    10    11    2
    13    10    12   am
    14    12    14    1
    15    14    15   ar
    16    15    16   ar
    17    16    17   ar
    18    17    18    1
    19    17    19   ar
    20    19    20   ar
    21     3     4   ar
    22     4     5   ar
    23     5     6   ar
    24     6     7   ar
    25     7     8   ar
    26     8     9   ar
    27    26    27   ar
    28    27    22   ar
    29     9     1   ar
    30    20    14   ar
    31     8     4   ar
    32    12    13    1
@<TRIPOS>MOLECULE
*****
 29 32 0 0 0
SMALL
GASTEIGER

@<TRIPOS>ATOM
      1 C          64.1151   89.5440   14.8904 C.ar    1  UNL1        0.1648
      2 C          64.2415   88.2670   14.1139 C.ar    1  UNL1        0.0467
      3 C          63.8865   86.9594   14.7577 C.ar    1  UNL1        0.0926
      4 C          63.4051   86.9291   16.1780 C.ar    1  UNL1        0.1702
      5 N          62.9849   85.7999   17.0714 N.ar    1  UNL1       -0.2033
      6 C          62.5988   86.3791   18.4001 C.ar    1  UNL1        0.2213
      7 N          62.7804   87.8663   18.3278 N.ar    1  UNL1       -0.1408
      8 N          63.2787   88.2063   16.9545 N.ar    1  UNL1       -0.2060
      9 C          63.6337   89.5137   16.3107 C.ar    1  UNL1        0.1395
     10 C          64.0129   85.6823   13.9811 C.2     1  UNL1        0.2536
     11 O          65.2063   84.7965   14.1837 O.2     1  UNL1       -0.2697
     12 N          62.9460   85.2911   13.0020 N.am    1  UNL1       -0.2657
     13 H          62.1627   85.8726   12.8691 H       1  UNL1        0.1566
     14 C          63.0725   84.0140   12.2255 C.ar    1  UNL1        0.1345
     15 C          63.7106   84.0217   10.8680 C.ar    1  UNL1        0.0368
     16 C          63.8371   82.7446   10.0915 C.ar    1  UNL1        0.0341
     17 C          63.3255   81.4597   10.6725 C.ar    1  UNL1        0.1593
     18 F          63.4520   80.1826    9.8960 F       1  UNL1       -0.2025
     19 C          62.6874   81.4520   12.0300 C.ar    1  UNL1        0.1298
     20 N          62.5610   82.7292   12.8065 N.ar    1  UNL1       -0.2267
     21 O          64.4701   90.8516   14.2466 O.3     1  UNL1       -0.4503
     22 C          62.5498   90.6768   10.7778 C.ar    1  UNL1        0.0906
     23 C          63.3778   91.6126    9.9480 C.ar    1  UNL1        0.1093
     24 N          64.5699   92.2948   10.5509 N.ar    1  UNL1       -0.2384
     25 C          64.9340   92.0411   11.9838 C.ar    1  UNL1        0.1363
     26 C          64.1060   91.1053   12.8137 C.ar    1  UNL1        0.1651
     27 C          62.9139   90.4231   12.2107 C.ar    1  UNL1        0.0509
     28 N          60.1656   89.3126    9.5719 N.1     1  UNL1       -0.1908
     29 C          61.3577   89.9946   10.1749 C.1     1  UNL1        0.1021
@<TRIPOS>BOND
     1    28    29    3
     2    29    22    1
     3    22    23   ar
     4    23    24   ar
     5    24    25   ar
     6    25    26   ar
     7    26    21    1
     8    21     1    1
     9     1     2   ar
    10     2     3   ar
    11     3    10    1
    12    10    11    2
    13    10    12   am
    14    12    14    1
    15    14    15   ar
    16    15    16   ar
    17    16    17   ar
    18    17    18    1
    19    17    19   ar
    20    19    20   ar
    21     3     4   ar
    22     4     5   ar
    23     5     6   ar
    24     6     7   ar
    25     7     8   ar
    26     8     9   ar
    27    26    27   ar
    28    27    22   ar
    29     9     1   ar
    30    20    14   ar
    31     8     4   ar
    32    12    13    1
