@<TRIPOS>MOLECULE
*****
 27 29 0 0 0
SMALL
GASTEIGER

@<TRIPOS>ATOM
      1 O          61.9000   85.2690   10.4171 O.2     1  UNL1       -0.2522
      2 C          62.7128   85.6034   11.6327 C.2     1  UNL1        0.3077
      3 N          63.3615   84.5079   12.4258 N.am    1  UNL1       -0.2681
      4 N          62.8768   87.0333   12.0551 N.am    1  UNL1       -0.2636
      5 C          62.2281   88.1288   11.2620 C.3     1  UNL1        0.0950
      6 C          62.3921   89.5587   11.6845 C.3     1  UNL1        0.0219
      7 C          63.2049   89.8931   12.9001 C.3     1  UNL1        0.0075
      8 C          63.8536   88.7976   13.6932 C.3     1  UNL1        0.0397
      9 C          63.6895   87.3677   13.2707 C.3     1  UNL1        0.0990
     10 H          63.8949   84.7274   13.2236 H       1  UNL1        0.1564
     11 C          63.1974   83.0780   12.0034 C.ar    1  UNL1        0.0516
     12 C          63.7313   82.6215   10.6780 C.ar    1  UNL1        0.0156
     13 C          63.5672   81.1916   10.2556 C.ar    1  UNL1        0.0127
     14 C          62.8693   80.2182   11.1586 C.ar    1  UNL1        0.0578
     15 CL         62.7053   78.7882   10.7362 Cl      1  UNL1       -0.0822
     16 C          62.3355   80.6746   12.4839 C.ar    1  UNL1        0.0127
     17 C          62.4995   82.1045   12.9063 C.ar    1  UNL1        0.0156
     18 C          64.2963   89.9910   14.4868 C.ar    1  UNL1       -0.0211
     19 C          63.6148   90.3263   15.7803 C.ar    1  UNL1       -0.0042
     20 C          64.0576   91.5197   16.5740 C.ar    1  UNL1       -0.0003
     21 C          65.1818   92.3777   16.0740 C.ar    1  UNL1       -0.0000
     22 C          65.8633   92.0424   14.7805 C.ar    1  UNL1       -0.0003
     23 C          65.4206   90.8490   13.9869 C.ar    1  UNL1       -0.0042
     24 C          64.6561   88.1165   14.7619 C.3     1  UNL1        0.0374
     25 C          64.2410   86.7660   15.2656 C.3     1  UNL1        0.1375
     26 O          63.3374   86.6553   16.4577 O.3     1  UNL1       -0.3820
     27 H          63.7977   86.9874   17.2443 H       1  UNL1        0.2104
@<TRIPOS>BOND
     1     1     2    2
     2     2     3   am
     3     3    11    1
     4    11    12   ar
     5    12    13   ar
     6    13    14   ar
     7    14    15    1
     8    14    16   ar
     9    16    17   ar
    10     2     4   am
    11     4     5    1
    12     5     6    1
    13     6     7    1
    14     7     8    1
    15     8    24    1
    16    24    25    1
    17    25    26    1
    18     8    18    1
    19    18    19   ar
    20    19    20   ar
    21    20    21   ar
    22    21    22   ar
    23    22    23   ar
    24     8     9    1
    25    17    11   ar
    26     9     4    1
    27    23    18   ar
    28     3    10    1
    29    26    27    1
@<TRIPOS>MOLECULE
*****
 27 29 0 0 0
SMALL
GASTEIGER

@<TRIPOS>ATOM
      1 O          64.9651   88.5182   14.6669 O.2     1  UNL1       -0.2522
      2 C          64.3399   89.1232   13.4450 C.2     1  UNL1        0.3077
      3 N          64.6345   90.5476   13.0789 N.am    1  UNL1       -0.2681
      4 N          63.4201   88.3036   12.5891 N.am    1  UNL1       -0.2636
      5 C          63.1256   86.8792   12.9552 C.3     1  UNL1        0.0950
      6 C          62.2058   86.0597   12.0994 C.3     1  UNL1        0.0219
      7 C          61.5807   86.6647   10.8774 C.3     1  UNL1        0.0075
      8 C          61.8752   88.0891   10.5113 C.3     1  UNL1        0.0397
      9 C          62.7950   88.9086   11.3672 C.3     1  UNL1        0.0990
     10 H          64.2241   90.9447   12.2769 H       1  UNL1        0.1564
     11 C          65.5542   91.3672   13.9347 C.ar    1  UNL1        0.0516
     12 C          65.1469   91.7410   15.3291 C.ar    1  UNL1        0.0156
     13 C          66.0666   92.5605   16.1849 C.ar    1  UNL1        0.0127
     14 C          67.3938   93.0062   15.6463 C.ar    1  UNL1        0.0578
     15 CL         68.3135   93.8258   16.5021 Cl      1  UNL1       -0.0822
     16 C          67.8011   92.6324   14.2519 C.ar    1  UNL1        0.0127
     17 C          66.8814   91.8129   13.3961 C.ar    1  UNL1        0.0156
     18 C          60.9456   87.7198    9.3935 C.ar    1  UNL1       -0.0211
     19 C          60.9367   86.3189    8.8574 C.ar    1  UNL1       -0.0042
     20 C          60.0071   85.9496    7.7396 C.ar    1  UNL1       -0.0003
     21 C          59.0865   86.9812    7.1579 C.ar    1  UNL1       -0.0000
     22 C          59.0955   88.3821    7.6940 C.ar    1  UNL1       -0.0003
     23 C          60.0251   88.7514    8.8119 C.ar    1  UNL1       -0.0042
     24 C          61.8470   89.3854    9.7570 C.3     1  UNL1        0.0374
     25 C          62.3225   90.6466   10.4151 C.3     1  UNL1        0.1375
     26 O          63.0162   91.7004    9.6038 O.3     1  UNL1       -0.3820
     27 H          63.8640   91.3554    9.2827 H       1  UNL1        0.2104
@<TRIPOS>BOND
     1     1     2    2
     2     2     3   am
     3     3    11    1
     4    11    12   ar
     5    12    13   ar
     6    13    14   ar
     7    14    15    1
     8    14    16   ar
     9    16    17   ar
    10     2     4   am
    11     4     5    1
    12     5     6    1
    13     6     7    1
    14     7     8    1
    15     8    24    1
    16    24    25    1
    17    25    26    1
    18     8    18    1
    19    18    19   ar
    20    19    20   ar
    21    20    21   ar
    22    21    22   ar
    23    22    23   ar
    24     8     9    1
    25    17    11   ar
    26     9     4    1
    27    23    18   ar
    28     3    10    1
    29    26    27    1
@<TRIPOS>MOLECULE
*****
 27 29 0 0 0
SMALL
GASTEIGER

@<TRIPOS>ATOM
      1 O          62.7653   84.5844   11.4476 O.2     1  UNL1       -0.2522
      2 C          62.9094   86.0772   11.4219 C.2     1  UNL1        0.3077
      3 N          62.5960   86.8395   10.1687 N.am    1  UNL1       -0.2681
      4 N          63.3670   86.8077   12.6496 N.am    1  UNL1       -0.2636
      5 C          63.6804   86.0455   13.9028 C.3     1  UNL1        0.0950
      6 C          64.1380   86.7760   15.1303 C.3     1  UNL1        0.0219
      7 C          64.2821   88.2688   15.1046 C.3     1  UNL1        0.0075
      8 C          63.9687   89.0311   13.8514 C.3     1  UNL1        0.0397
      9 C          63.5112   88.3006   12.6238 C.3     1  UNL1        0.0990
     10 H          62.6907   87.8193   10.1518 H       1  UNL1        0.1564
     11 C          62.1384   86.1089    8.9411 C.ar    1  UNL1        0.0516
     12 C          60.7099   86.2122    8.4957 C.ar    1  UNL1        0.0156
     13 C          60.2524   85.4817    7.2681 C.ar    1  UNL1        0.0127
     14 C          61.2234   84.6479    6.4859 C.ar    1  UNL1        0.0578
     15 CL         60.7658   83.9173    5.2583 Cl      1  UNL1       -0.0822
     16 C          62.6520   84.5446    6.9314 C.ar    1  UNL1        0.0127
     17 C          63.1095   85.2751    8.1589 C.ar    1  UNL1        0.0156
     18 C          64.3653   90.1630   14.7524 C.ar    1  UNL1       -0.0211
     19 C          65.5784   90.9857   14.4336 C.ar    1  UNL1       -0.0042
     20 C          65.9749   92.1175   15.3346 C.ar    1  UNL1       -0.0003
     21 C          65.1584   92.4265   16.5543 C.ar    1  UNL1       -0.0000
     22 C          63.9453   91.6038   16.8731 C.ar    1  UNL1       -0.0003
     23 C          63.5488   90.4720   15.9721 C.ar    1  UNL1       -0.0042
     24 C          63.7931   90.1865   12.9110 C.3     1  UNL1        0.0374
     25 C          62.7869   90.1043   11.8016 C.3     1  UNL1        0.1375
     26 O          61.5038   90.8757   11.8940 O.3     1  UNL1       -0.3820
     27 H          60.9689   90.5272   12.6243 H       1  UNL1        0.2104
@<TRIPOS>BOND
     1     1     2    2
     2     2     3   am
     3     3    11    1
     4    11    12   ar
     5    12    13   ar
     6    13    14   ar
     7    14    15    1
     8    14    16   ar
     9    16    17   ar
    10     2     4   am
    11     4     5    1
    12     5     6    1
    13     6     7    1
    14     7     8    1
    15     8    24    1
    16    24    25    1
    17    25    26    1
    18     8    18    1
    19    18    19   ar
    20    19    20   ar
    21    20    21   ar
    22    21    22   ar
    23    22    23   ar
    24     8     9    1
    25    17    11   ar
    26     9     4    1
    27    23    18   ar
    28     3    10    1
    29    26    27    1
@<TRIPOS>MOLECULE
*****
 27 29 0 0 0
SMALL
GASTEIGER

@<TRIPOS>ATOM
      1 O          61.5914   85.9348   11.0834 O.2     1  UNL1       -0.2522
      2 C          62.5416   86.4946   12.1001 C.2     1  UNL1        0.3077
      3 N          63.1080   85.6052   13.1670 N.am    1  UNL1       -0.2681
      4 N          62.9255   87.9438   12.0499 N.am    1  UNL1       -0.2636
      5 C          62.3592   88.8332   10.9830 C.3     1  UNL1        0.0950
      6 C          62.7430   90.2823   10.9328 C.3     1  UNL1        0.0219
      7 C          63.6932   90.8421   11.9495 C.3     1  UNL1        0.0075
      8 C          64.2596   89.9528   13.0164 C.3     1  UNL1        0.0397
      9 C          63.8757   88.5036   13.0666 C.3     1  UNL1        0.0990
     10 H          63.7316   85.9727   13.8343 H       1  UNL1        0.1564
     11 C          62.7241   84.1560   13.2172 C.ar    1  UNL1        0.0516
     12 C          62.2027   83.5620   14.4920 C.ar    1  UNL1        0.0156
     13 C          61.8188   82.1128   14.5422 C.ar    1  UNL1        0.0127
     14 C          61.9565   81.2577   13.3175 C.ar    1  UNL1        0.0578
     15 CL         61.5726   79.8084   13.3677 Cl      1  UNL1       -0.0822
     16 C          62.4779   81.8517   12.0427 C.ar    1  UNL1        0.0127
     17 C          62.8618   83.3008   11.9925 C.ar    1  UNL1        0.0156
     18 C          64.9198   91.2495   13.3807 C.ar    1  UNL1       -0.0211
     19 C          65.2571   91.5431   14.8125 C.ar    1  UNL1       -0.0042
     20 C          65.9173   92.8398   15.1768 C.ar    1  UNL1       -0.0003
     21 C          66.2401   93.8429   14.1093 C.ar    1  UNL1       -0.0000
     22 C          65.9028   93.5493   12.6775 C.ar    1  UNL1       -0.0003
     23 C          65.2426   92.2526   12.3132 C.ar    1  UNL1       -0.0042
     24 C          65.0552   89.5137   14.2099 C.3     1  UNL1        0.0374
     25 C          64.5637   88.3831   15.0643 C.3     1  UNL1        0.1375
     26 O          63.4477   88.6108   16.0403 O.3     1  UNL1       -0.3820
     27 H          63.7439   89.2212   16.7335 H       1  UNL1        0.2104
@<TRIPOS>BOND
     1     1     2    2
     2     2     3   am
     3     3    11    1
     4    11    12   ar
     5    12    13   ar
     6    13    14   ar
     7    14    15    1
     8    14    16   ar
     9    16    17   ar
    10     2     4   am
    11     4     5    1
    12     5     6    1
    13     6     7    1
    14     7     8    1
    15     8    24    1
    16    24    25    1
    17    25    26    1
    18     8    18    1
    19    18    19   ar
    20    19    20   ar
    21    20    21   ar
    22    21    22   ar
    23    22    23   ar
    24     8     9    1
    25    17    11   ar
    26     9     4    1
    27    23    18   ar
    28     3    10    1
    29    26    27    1
@<TRIPOS>MOLECULE
*****
 27 29 0 0 0
SMALL
GASTEIGER

@<TRIPOS>ATOM
      1 O          62.9248   89.1628   12.0689 O.2     1  UNL1       -0.2522
      2 C          63.2496   87.8686   12.7541 C.2     1  UNL1        0.3077
      3 N          63.8497   87.8777   14.1288 N.am    1  UNL1       -0.2681
      4 N          62.9742   86.5652   12.0646 N.am    1  UNL1       -0.2636
      5 C          62.3741   86.5561   10.6899 C.3     1  UNL1        0.0950
      6 C          62.0987   85.2527   10.0005 C.3     1  UNL1        0.0219
      7 C          62.4234   83.9585   10.6857 C.3     1  UNL1        0.0075
      8 C          63.0236   83.9676   12.0604 C.3     1  UNL1        0.0397
      9 C          63.2989   85.2710   12.7498 C.3     1  UNL1        0.0990
     10 H          64.0628   87.0283   14.5785 H       1  UNL1        0.1564
     11 C          64.1251   89.1811   14.8183 C.ar    1  UNL1        0.0516
     12 C          63.3515   89.5578   16.0470 C.ar    1  UNL1        0.0156
     13 C          63.6269   90.8611   16.7364 C.ar    1  UNL1        0.0127
     14 C          64.6759   91.7878   16.1973 C.ar    1  UNL1        0.0578
     15 CL         64.9513   93.0912   16.8868 Cl      1  UNL1       -0.0822
     16 C          65.4496   91.4112   14.9686 C.ar    1  UNL1        0.0127
     17 C          65.1742   90.1078   14.2792 C.ar    1  UNL1        0.0156
     18 C          62.9474   82.4891   11.8192 C.ar    1  UNL1       -0.0211
     19 C          62.4857   81.5734   12.9140 C.ar    1  UNL1       -0.0042
     20 C          62.4096   80.0949   12.6728 C.ar    1  UNL1       -0.0003
     21 C          62.7951   79.5321   11.3369 C.ar    1  UNL1       -0.0000
     22 C          63.2568   80.4477   10.2422 C.ar    1  UNL1       -0.0003
     23 C          63.3329   81.9262   10.4833 C.ar    1  UNL1       -0.0042
     24 C          63.5972   83.4633   13.3513 C.3     1  UNL1        0.0374
     25 C          64.7176   84.2072   14.0156 C.3     1  UNL1        0.1375
     26 O          64.7911   84.2723   15.5123 O.3     1  UNL1       -0.3820
     27 H          64.0365   84.7787   15.8514 H       1  UNL1        0.2104
@<TRIPOS>BOND
     1     1     2    2
     2     2     3   am
     3     3    11    1
     4    11    12   ar
     5    12    13   ar
     6    13    14   ar
     7    14    15    1
     8    14    16   ar
     9    16    17   ar
    10     2     4   am
    11     4     5    1
    12     5     6    1
    13     6     7    1
    14     7     8    1
    15     8    24    1
    16    24    25    1
    17    25    26    1
    18     8    18    1
    19    18    19   ar
    20    19    20   ar
    21    20    21   ar
    22    21    22   ar
    23    22    23   ar
    24     8     9    1
    25    17    11   ar
    26     9     4    1
    27    23    18   ar
    28     3    10    1
    29    26    27    1
@<TRIPOS>MOLECULE
*****
 27 29 0 0 0
SMALL
GASTEIGER

@<TRIPOS>ATOM
      1 O          62.5295   88.8704   12.6051 O.2     1  UNL1       -0.2522
      2 C          63.6167   89.8380   12.9681 C.2     1  UNL1        0.3077
      3 N          64.3267   89.7096   14.2832 N.am    1  UNL1       -0.2681
      4 N          63.9940   90.9339   12.0159 N.am    1  UNL1       -0.2636
      5 C          63.2841   91.0623   10.7009 C.3     1  UNL1        0.0950
      6 C          63.6614   92.1582    9.7488 C.3     1  UNL1        0.0219
      7 C          64.7487   93.1258   10.1118 C.3     1  UNL1        0.0075
      8 C          65.4586   92.9974   11.4268 C.3     1  UNL1        0.0397
      9 C          65.0813   91.9015   12.3789 C.3     1  UNL1        0.0990
     10 H          65.0403   90.3446   14.5214 H       1  UNL1        0.1564
     11 C          63.9494   88.6136   15.2354 C.ar    1  UNL1        0.0516
     12 C          63.1970   88.9378   16.4919 C.ar    1  UNL1        0.0156
     13 C          62.8198   87.8418   17.4440 C.ar    1  UNL1        0.0127
     14 C          63.1948   86.4218   17.1396 C.ar    1  UNL1        0.0578
     15 CL         62.8175   85.3258   18.0918 Cl      1  UNL1       -0.0822
     16 C          63.9472   86.0976   15.8831 C.ar    1  UNL1        0.0127
     17 C          64.3244   87.1935   14.9310 C.ar    1  UNL1        0.0156
     18 C          66.1681   94.1930   10.8635 C.ar    1  UNL1       -0.0211
     19 C          67.0437   94.0447    9.6547 C.ar    1  UNL1       -0.0042
     20 C          67.7532   95.2403    9.0913 C.ar    1  UNL1       -0.0003
     21 C          67.5869   96.5841    9.7368 C.ar    1  UNL1       -0.0000
     22 C          66.7112   96.7323   10.9456 C.ar    1  UNL1       -0.0003
     23 C          66.0018   95.5367   11.5090 C.ar    1  UNL1       -0.0042
     24 C          66.4149   93.2843   12.5463 C.3     1  UNL1        0.0374
     25 C          67.0668   92.1527   13.2843 C.3     1  UNL1        0.1375
     26 O          68.5295   91.8787   13.0966 O.3     1  UNL1       -0.3820
     27 H          68.6901   91.5912   12.1842 H       1  UNL1        0.2104
@<TRIPOS>BOND
     1     1     2    2
     2     2     3   am
     3     3    11    1
     4    11    12   ar
     5    12    13   ar
     6    13    14   ar
     7    14    15    1
     8    14    16   ar
     9    16    17   ar
    10     2     4   am
    11     4     5    1
    12     5     6    1
    13     6     7    1
    14     7     8    1
    15     8    24    1
    16    24    25    1
    17    25    26    1
    18     8    18    1
    19    18    19   ar
    20    19    20   ar
    21    20    21   ar
    22    21    22   ar
    23    22    23   ar
    24     8     9    1
    25    17    11   ar
    26     9     4    1
    27    23    18   ar
    28     3    10    1
    29    26    27    1
@<TRIPOS>MOLECULE
*****
 27 29 0 0 0
SMALL
GASTEIGER

@<TRIPOS>ATOM
      1 O          63.0365   90.2525   11.7311 O.2     1  UNL1       -0.2522
      2 C          63.5558   89.0703   12.4944 C.2     1  UNL1        0.3077
      3 N          64.6339   89.2549   13.5208 N.am    1  UNL1       -0.2681
      4 N          62.9968   87.7033   12.2314 N.am    1  UNL1       -0.2636
      5 C          61.9187   87.5187   11.2051 C.3     1  UNL1        0.0950
      6 C          61.3598   86.1518   10.9421 C.3     1  UNL1        0.0219
      7 C          61.8791   84.9695   11.7054 C.3     1  UNL1        0.0075
      8 C          62.9573   85.1542   12.7317 C.3     1  UNL1        0.0397
      9 C          63.5161   86.5211   12.9947 C.3     1  UNL1        0.0990
     10 H          64.9748   88.4790   14.0217 H       1  UNL1        0.1564
     11 C          65.1929   90.6219   13.7838 C.ar    1  UNL1        0.0516
     12 C          65.2296   91.1606   15.1832 C.ar    1  UNL1        0.0156
     13 C          65.7885   92.5275   15.4462 C.ar    1  UNL1        0.0127
     14 C          66.3107   93.3556   14.3098 C.ar    1  UNL1        0.0578
     15 CL         66.8696   94.7226   14.5729 Cl      1  UNL1       -0.0822
     16 C          66.2740   92.8169   12.9104 C.ar    1  UNL1        0.0127
     17 C          65.7151   91.4500   12.6474 C.ar    1  UNL1        0.0156
     18 C          62.7475   83.6727   12.8379 C.ar    1  UNL1       -0.0211
     19 C          63.0617   82.7851   11.6702 C.ar    1  UNL1       -0.0042
     20 C          62.8520   81.3036   11.7765 C.ar    1  UNL1       -0.0003
     21 C          62.3281   80.7098   13.0504 C.ar    1  UNL1       -0.0000
     22 C          62.0139   81.5974   14.2181 C.ar    1  UNL1       -0.0003
     23 C          62.2236   83.0789   14.1119 C.ar    1  UNL1       -0.0042
     24 C          63.9627   84.8244   13.7950 C.3     1  UNL1        0.0374
     25 C          64.3464   85.8588   14.8110 C.3     1  UNL1        0.1375
     26 O          64.3567   85.5098   16.2698 O.3     1  UNL1       -0.3820
     27 H          63.4516   85.3217   16.5636 H       1  UNL1        0.2104
@<TRIPOS>BOND
     1     1     2    2
     2     2     3   am
     3     3    11    1
     4    11    12   ar
     5    12    13   ar
     6    13    14   ar
     7    14    15    1
     8    14    16   ar
     9    16    17   ar
    10     2     4   am
    11     4     5    1
    12     5     6    1
    13     6     7    1
    14     7     8    1
    15     8    24    1
    16    24    25    1
    17    25    26    1
    18     8    18    1
    19    18    19   ar
    20    19    20   ar
    21    20    21   ar
    22    21    22   ar
    23    22    23   ar
    24     8     9    1
    25    17    11   ar
    26     9     4    1
    27    23    18   ar
    28     3    10    1
    29    26    27    1
@<TRIPOS>MOLECULE
*****
 27 29 0 0 0
SMALL
GASTEIGER

@<TRIPOS>ATOM
      1 O          63.8755   89.7396   16.2168 O.2     1  UNL1       -0.2522
      2 C          64.0330   88.7121   15.1354 C.2     1  UNL1        0.3077
      3 N          64.6288   89.0989   13.8143 N.am    1  UNL1       -0.2681
      4 N          63.5947   87.2977   15.3751 N.am    1  UNL1       -0.2636
      5 C          62.9988   86.9108   16.6962 C.3     1  UNL1        0.0950
      6 C          62.5605   85.4965   16.9359 C.3     1  UNL1        0.0219
      7 C          62.7181   84.4690   15.8545 C.3     1  UNL1        0.0075
      8 C          63.3139   84.8558   14.5334 C.3     1  UNL1        0.0397
      9 C          63.7522   86.2702   14.2937 C.3     1  UNL1        0.0990
     10 H          64.7322   88.4245   13.1046 H       1  UNL1        0.1564
     11 C          65.0672   90.5133   13.5746 C.ar    1  UNL1        0.0516
     12 C          66.0236   91.1731   14.5232 C.ar    1  UNL1        0.0156
     13 C          66.4619   92.5874   14.2834 C.ar    1  UNL1        0.0127
     14 C          65.9438   93.3420   13.0950 C.ar    1  UNL1        0.0578
     15 CL         66.3821   94.7564   12.8553 Cl      1  UNL1       -0.0822
     16 C          64.9874   92.6822   12.1464 C.ar    1  UNL1        0.0127
     17 C          64.5491   91.2678   12.3862 C.ar    1  UNL1        0.0156
     18 C          63.0508   83.4002   14.2842 C.ar    1  UNL1       -0.0211
     19 C          64.1495   82.5163   13.7727 C.ar    1  UNL1       -0.0042
     20 C          63.8863   81.0607   13.5235 C.ar    1  UNL1       -0.0003
     21 C          62.5246   80.4891   13.7859 C.ar    1  UNL1       -0.0000
     22 C          61.4259   81.3730   14.2975 C.ar    1  UNL1       -0.0003
     23 C          61.6890   82.8286   14.5466 C.ar    1  UNL1       -0.0042
     24 C          63.8184   84.7372   13.1257 C.3     1  UNL1        0.0374
     25 C          62.9438   85.1478   11.9785 C.3     1  UNL1        0.1375
     26 O          63.0353   84.4228   10.6685 O.3     1  UNL1       -0.3820
     27 H          63.9067   84.5795   10.2724 H       1  UNL1        0.2104
@<TRIPOS>BOND
     1     1     2    2
     2     2     3   am
     3     3    11    1
     4    11    12   ar
     5    12    13   ar
     6    13    14   ar
     7    14    15    1
     8    14    16   ar
     9    16    17   ar
    10     2     4   am
    11     4     5    1
    12     5     6    1
    13     6     7    1
    14     7     8    1
    15     8    24    1
    16    24    25    1
    17    25    26    1
    18     8    18    1
    19    18    19   ar
    20    19    20   ar
    21    20    21   ar
    22    21    22   ar
    23    22    23   ar
    24     8     9    1
    25    17    11   ar
    26     9     4    1
    27    23    18   ar
    28     3    10    1
    29    26    27    1
@<TRIPOS>MOLECULE
*****
 27 29 0 0 0
SMALL
GASTEIGER

@<TRIPOS>ATOM
      1 O          62.5547   90.8884   10.4872 O.2     1  UNL1       -0.2522
      2 C          63.2148   89.8848   11.3855 C.2     1  UNL1        0.3077
      3 N          64.4120   90.2791   12.1986 N.am    1  UNL1       -0.2681
      4 N          62.6776   88.4868   11.4707 N.am    1  UNL1       -0.2636
      5 C          61.4804   88.0925   10.6576 C.3     1  UNL1        0.0950
      6 C          60.9433   86.6946   10.7428 C.3     1  UNL1        0.0219
      7 C          61.6034   85.6910   11.6412 C.3     1  UNL1        0.0075
      8 C          62.8006   86.0853   12.4543 C.3     1  UNL1        0.0397
      9 C          63.3377   87.4832   12.3691 C.3     1  UNL1        0.0990
     10 H          64.8452   89.6204   12.7883 H       1  UNL1        0.1564
     11 C          64.9491   91.6771   12.1134 C.ar    1  UNL1        0.0516
     12 C          64.8881   92.4262   10.8154 C.ar    1  UNL1        0.0156
     13 C          65.4252   93.8241   10.7302 C.ar    1  UNL1        0.0127
     14 C          66.0234   94.4729   11.9432 C.ar    1  UNL1        0.0578
     15 CL         66.5606   95.8709   11.8580 Cl      1  UNL1       -0.0822
     16 C          66.0845   93.7238   13.2412 C.ar    1  UNL1        0.0127
     17 C          65.5473   92.3259   13.3264 C.ar    1  UNL1        0.0156
     18 C          62.6626   84.6513   12.8723 C.ar    1  UNL1       -0.0211
     19 C          62.7661   83.5588   11.8498 C.ar    1  UNL1       -0.0042
     20 C          62.6281   82.1248   12.2679 C.ar    1  UNL1       -0.0003
     21 C          62.3867   81.7835   13.7084 C.ar    1  UNL1       -0.0000
     22 C          62.2833   82.8761   14.7310 C.ar    1  UNL1       -0.0003
     23 C          62.4213   84.3100   14.3129 C.ar    1  UNL1       -0.0042
     24 C          63.9499   85.9816   13.4126 C.3     1  UNL1        0.0374
     25 C          64.0051   86.8740   14.6170 C.3     1  UNL1        0.1375
     26 O          64.7073   88.1971   14.5386 O.3     1  UNL1       -0.3820
     27 H          65.6564   88.0518   14.4008 H       1  UNL1        0.2104
@<TRIPOS>BOND
     1     1     2    2
     2     2     3   am
     3     3    11    1
     4    11    12   ar
     5    12    13   ar
     6    13    14   ar
     7    14    15    1
     8    14    16   ar
     9    16    17   ar
    10     2     4   am
    11     4     5    1
    12     5     6    1
    13     6     7    1
    14     7     8    1
    15     8    24    1
    16    24    25    1
    17    25    26    1
    18     8    18    1
    19    18    19   ar
    20    19    20   ar
    21    20    21   ar
    22    21    22   ar
    23    22    23   ar
    24     8     9    1
    25    17    11   ar
    26     9     4    1
    27    23    18   ar
    28     3    10    1
    29    26    27    1
