@<TRIPOS>MOLECULE
*****
 33 36 0 0 0
SMALL
GASTEIGER

@<TRIPOS>ATOM
      1 C          64.9232   88.0669   14.8810 C.3     1  UNL1        0.0506
      2 C          64.1982   88.7285   13.7466 C.ar    1  UNL1        0.0489
      3 C          63.3601   87.9077   12.8118 C.ar    1  UNL1        0.0659
      4 C          62.6351   88.5692   11.6774 C.ar    1  UNL1        0.0106
      5 C          61.7970   87.7484   10.7426 C.ar    1  UNL1        0.0070
      6 C          61.0721   88.4099    9.6083 C.ar    1  UNL1        0.0346
      7 BR         60.2339   87.5891    8.6734 Br      1  UNL1       -0.0490
      8 C          61.1853   89.8923    9.4087 C.ar    1  UNL1        0.0068
      9 C          62.0234   90.7131   10.3435 C.ar    1  UNL1        0.0053
     10 C          62.7483   90.0515   11.4778 C.ar    1  UNL1        0.0567
     11 C          63.5864   90.8723   12.4126 C.ar    1  UNL1        0.2644
     12 O          63.6996   92.3547   12.2130 O.2     1  UNL1       -0.2666
     13 N          64.3114   90.2108   13.5470 N.ar    1  UNL1       -0.2781
     14 C          65.1495   91.0316   14.4818 C.ar    1  UNL1        0.0665
     15 C          66.6011   91.2618   14.1817 C.ar    1  UNL1        0.0176
     16 C          67.4392   92.0826   15.1164 C.ar    1  UNL1        0.0015
     17 C          66.8258   92.6731   16.3513 C.ar    1  UNL1        0.0001
     18 C          65.3743   92.4429   16.6514 C.ar    1  UNL1        0.0015
     19 C          64.5362   91.6222   15.7167 C.ar    1  UNL1        0.0176
     20 C          63.2469   86.4253   13.0114 C.2     1  UNL1        0.2506
     21 O          63.2857   85.8499   14.3961 O.2     1  UNL1       -0.2698
     22 N          63.0950   85.5184   11.8263 N.am    1  UNL1       -0.2786
     23 H          63.0695   85.8961   10.9175 H       1  UNL1        0.1552
     24 C          62.9818   84.0361   12.0259 C.ar    1  UNL1        0.0784
     25 C          62.4578   83.4916   13.3217 C.ar    1  UNL1        0.0170
     26 C          62.3446   82.0093   13.5213 C.ar    1  UNL1        0.0025
     27 C          62.7555   81.0714   12.4251 C.ar    1  UNL1        0.0163
     28 C          63.2794   81.6158   11.1293 C.ar    1  UNL1        0.0320
     29 C          63.3926   83.0982   10.9298 C.ar    1  UNL1        0.1535
     30 F          63.9166   83.6426    9.6339 F       1  UNL1       -0.2029
     31 C          62.6423   79.5890   12.6247 C.2     1  UNL1        0.0729
     32 O          62.6363   78.6708   11.4386 O.co2   1  UNL1       -0.5446
     33 O          62.5350   79.0249   14.0104 O.co2   1  UNL1       -0.5446
@<TRIPOS>UNITY_ATOM_ATTR
32 1
charge -1
@<TRIPOS>BOND
     1     1     2    1
     2     2     3   ar
     3     3    20    1
     4    20    21    2
     5    20    22   am
     6    22    24    1
     7    24    25   ar
     8    25    26   ar
     9    26    27   ar
    10    27    31    1
    11    31    32   ar
    12    31    33   ar
    13    27    28   ar
    14    28    29   ar
    15    29    30    1
    16     3     4   ar
    17     4     5   ar
    18     5     6   ar
    19     6     7    1
    20     6     8   ar
    21     8     9   ar
    22     9    10   ar
    23    10    11   ar
    24    11    12    2
    25    11    13   ar
    26    13    14    1
    27    14    15   ar
    28    15    16   ar
    29    16    17   ar
    30    17    18   ar
    31    18    19   ar
    32    13     2   ar
    33    19    14   ar
    34    29    24   ar
    35    10     4   ar
    36    22    23    1
@<TRIPOS>MOLECULE
*****
 33 36 0 0 0
SMALL
GASTEIGER

@<TRIPOS>ATOM
      1 C          61.6935   84.5101   10.6124 C.3     1  UNL1        0.0506
      2 C          62.4052   85.2164   11.7282 C.ar    1  UNL1        0.0489
      3 C          62.5902   86.7040   11.6769 C.ar    1  UNL1        0.0659
      4 C          63.3019   87.4102   12.7926 C.ar    1  UNL1        0.0106
      5 C          63.4869   88.8978   12.7413 C.ar    1  UNL1        0.0070
      6 C          64.1986   89.6040   13.8570 C.ar    1  UNL1        0.0346
      7 BR         64.3836   91.0917   13.8058 Br      1  UNL1       -0.0490
      8 C          64.7253   88.8225   15.0240 C.ar    1  UNL1        0.0068
      9 C          64.5403   87.3348   15.0753 C.ar    1  UNL1        0.0053
     10 C          63.8286   86.6287   13.9596 C.ar    1  UNL1        0.0567
     11 C          63.6436   85.1410   14.0109 C.ar    1  UNL1        0.2644
     12 O          64.1703   84.3595   15.1778 O.2     1  UNL1       -0.2666
     13 N          62.9319   84.4349   12.8952 N.ar    1  UNL1       -0.2781
     14 C          62.7469   82.9471   12.9464 C.ar    1  UNL1        0.0665
     15 C          61.9765   82.3256   14.0735 C.ar    1  UNL1        0.0176
     16 C          61.7915   80.8380   14.1248 C.ar    1  UNL1        0.0015
     17 C          62.3768   79.9719   13.0490 C.ar    1  UNL1        0.0001
     18 C          63.1471   80.5935   11.9219 C.ar    1  UNL1        0.0015
     19 C          63.3321   82.0811   11.8707 C.ar    1  UNL1        0.0176
     20 C          62.0635   87.4855   10.5099 C.2     1  UNL1        0.2506
     21 O          62.9990   88.3089    9.6751 O.2     1  UNL1       -0.2698
     22 N          60.6014   87.4436   10.1777 N.am    1  UNL1       -0.2786
     23 H          59.9874   86.9032   10.7256 H       1  UNL1        0.1552
     24 C          60.0747   88.2251    9.0107 C.ar    1  UNL1        0.0784
     25 C          60.1902   89.7206    8.9961 C.ar    1  UNL1        0.0170
     26 C          59.6635   90.5021    7.8291 C.ar    1  UNL1        0.0025
     27 C          59.0213   89.7881    6.6768 C.ar    1  UNL1        0.0163
     28 C          58.9059   88.2927    6.6914 C.ar    1  UNL1        0.0320
     29 C          59.4326   87.5112    7.8584 C.ar    1  UNL1        0.1535
     30 F          59.3171   86.0156    7.8730 F       1  UNL1       -0.2029
     31 C          58.4946   90.5696    5.5098 C.2     1  UNL1        0.0729
     32 O          57.0153   90.7295    5.3205 O.co2   1  UNL1       -0.5446
     33 O          59.4474   91.1912    4.5320 O.co2   1  UNL1       -0.5446
@<TRIPOS>UNITY_ATOM_ATTR
32 1
charge -1
@<TRIPOS>BOND
     1     1     2    1
     2     2     3   ar
     3     3    20    1
     4    20    21    2
     5    20    22   am
     6    22    24    1
     7    24    25   ar
     8    25    26   ar
     9    26    27   ar
    10    27    31    1
    11    31    32   ar
    12    31    33   ar
    13    27    28   ar
    14    28    29   ar
    15    29    30    1
    16     3     4   ar
    17     4     5   ar
    18     5     6   ar
    19     6     7    1
    20     6     8   ar
    21     8     9   ar
    22     9    10   ar
    23    10    11   ar
    24    11    12    2
    25    11    13   ar
    26    13    14    1
    27    14    15   ar
    28    15    16   ar
    29    16    17   ar
    30    17    18   ar
    31    18    19   ar
    32    13     2   ar
    33    19    14   ar
    34    29    24   ar
    35    10     4   ar
    36    22    23    1
@<TRIPOS>MOLECULE
*****
 33 36 0 0 0
SMALL
GASTEIGER

@<TRIPOS>ATOM
      1 C          64.5416   88.2873   14.6769 C.3     1  UNL1        0.0506
      2 C          64.0546   89.0659   13.4909 C.ar    1  UNL1        0.0489
      3 C          63.1386   88.4197   12.4942 C.ar    1  UNL1        0.0659
      4 C          62.6517   89.1983   11.3081 C.ar    1  UNL1        0.0106
      5 C          61.7357   88.5521   10.3114 C.ar    1  UNL1        0.0070
      6 C          61.2488   89.3307    9.1254 C.ar    1  UNL1        0.0346
      7 BR         60.3328   88.6845    8.1287 Br      1  UNL1       -0.0490
      8 C          61.6779   90.7555    8.9361 C.ar    1  UNL1        0.0068
      9 C          62.5939   91.4017    9.9327 C.ar    1  UNL1        0.0053
     10 C          63.0808   90.6231   11.1187 C.ar    1  UNL1        0.0567
     11 C          63.9968   91.2693   12.1155 C.ar    1  UNL1        0.2644
     12 O          64.4259   92.6941   11.9261 O.2     1  UNL1       -0.2666
     13 N          64.4837   90.4907   13.3015 N.ar    1  UNL1       -0.2781
     14 C          65.3997   91.1369   14.2982 C.ar    1  UNL1        0.0665
     15 C          64.8412   91.7189   15.5628 C.ar    1  UNL1        0.0176
     16 C          65.7572   92.3651   16.5596 C.ar    1  UNL1        0.0015
     17 C          67.2316   92.4292   16.2916 C.ar    1  UNL1        0.0001
     18 C          67.7901   91.8472   15.0270 C.ar    1  UNL1        0.0015
     19 C          66.8742   91.2010   14.0303 C.ar    1  UNL1        0.0176
     20 C          62.7095   86.9949   12.6836 C.2     1  UNL1        0.2506
     21 O          61.3471   86.5560   12.2350 O.2     1  UNL1       -0.2698
     22 N          63.6428   86.0090   13.3214 N.am    1  UNL1       -0.2786
     23 H          64.5371   86.2971   13.6158 H       1  UNL1        0.1552
     24 C          63.2138   84.5842   13.5108 C.ar    1  UNL1        0.0784
     25 C          63.3159   83.6126   12.3725 C.ar    1  UNL1        0.0170
     26 C          62.8868   82.1878   12.5619 C.ar    1  UNL1        0.0025
     27 C          62.3556   81.7347   13.8895 C.ar    1  UNL1        0.0163
     28 C          62.2535   82.7063   15.0277 C.ar    1  UNL1        0.0320
     29 C          62.6826   84.1310   14.8384 C.ar    1  UNL1        0.1535
     30 F          62.5805   85.1027   15.9766 F       1  UNL1       -0.2029
     31 C          61.9265   80.3099   14.0789 C.2     1  UNL1        0.0729
     32 O          60.4673   79.9651   14.1192 O.co2   1  UNL1       -0.5446
     33 O          62.9568   79.2298   14.2279 O.co2   1  UNL1       -0.5446
@<TRIPOS>UNITY_ATOM_ATTR
32 1
charge -1
@<TRIPOS>BOND
     1     1     2    1
     2     2     3   ar
     3     3    20    1
     4    20    21    2
     5    20    22   am
     6    22    24    1
     7    24    25   ar
     8    25    26   ar
     9    26    27   ar
    10    27    31    1
    11    31    32   ar
    12    31    33   ar
    13    27    28   ar
    14    28    29   ar
    15    29    30    1
    16     3     4   ar
    17     4     5   ar
    18     5     6   ar
    19     6     7    1
    20     6     8   ar
    21     8     9   ar
    22     9    10   ar
    23    10    11   ar
    24    11    12    2
    25    11    13   ar
    26    13    14    1
    27    14    15   ar
    28    15    16   ar
    29    16    17   ar
    30    17    18   ar
    31    18    19   ar
    32    13     2   ar
    33    19    14   ar
    34    29    24   ar
    35    10     4   ar
    36    22    23    1
@<TRIPOS>MOLECULE
*****
 33 36 0 0 0
SMALL
GASTEIGER

@<TRIPOS>ATOM
      1 C          64.6674   92.1010    9.9693 C.3     1  UNL1        0.0506
      2 C          64.7951   92.1238   11.4637 C.ar    1  UNL1        0.0489
      3 C          64.1178   91.0713   12.2904 C.ar    1  UNL1        0.0659
      4 C          64.2454   91.0940   13.7849 C.ar    1  UNL1        0.0106
      5 C          63.5681   90.0415   14.6115 C.ar    1  UNL1        0.0070
      6 C          63.6958   90.0643   16.1059 C.ar    1  UNL1        0.0346
      7 BR         63.0184   89.0118   16.9327 Br      1  UNL1       -0.0490
      8 C          64.5007   91.1396   16.7736 C.ar    1  UNL1        0.0068
      9 C          65.1781   92.1921   15.9469 C.ar    1  UNL1        0.0053
     10 C          65.0504   92.1693   14.4525 C.ar    1  UNL1        0.0567
     11 C          65.7277   93.2218   13.6257 C.ar    1  UNL1        0.2644
     12 O          66.5327   94.2971   14.2934 O.2     1  UNL1       -0.2666
     13 N          65.6001   93.1990   12.1314 N.ar    1  UNL1       -0.2781
     14 C          66.2774   94.2516   11.3046 C.ar    1  UNL1        0.0665
     15 C          67.2302   93.8528   10.2169 C.ar    1  UNL1        0.0176
     16 C          67.9075   94.9053    9.3901 C.ar    1  UNL1        0.0015
     17 C          67.6320   96.3564    9.6511 C.ar    1  UNL1        0.0001
     18 C          66.6792   96.7552   10.7388 C.ar    1  UNL1        0.0015
     19 C          66.0019   95.7027   11.5656 C.ar    1  UNL1        0.0176
     20 C          63.3128   89.9960   11.6227 C.2     1  UNL1        0.2506
     21 O          63.1859   88.6462   12.2646 O.2     1  UNL1       -0.2698
     22 N          62.6347   90.2705   10.3133 N.am    1  UNL1       -0.2786
     23 H          62.7180   91.1564    9.8920 H       1  UNL1        0.1552
     24 C          61.8297   89.1952    9.6456 C.ar    1  UNL1        0.0784
     25 C          62.4658   87.8773    9.3162 C.ar    1  UNL1        0.0170
     26 C          61.6608   86.8020    8.6486 C.ar    1  UNL1        0.0025
     27 C          60.2197   87.0447    8.3103 C.ar    1  UNL1        0.0163
     28 C          59.5837   88.3626    8.6396 C.ar    1  UNL1        0.0320
     29 C          60.3887   89.4378    9.3073 C.ar    1  UNL1        0.1535
     30 F          59.7525   90.7558    9.6367 F       1  UNL1       -0.2029
     31 C          59.4147   85.9694    7.6426 C.2     1  UNL1        0.0729
     32 O          60.1082   84.8514    6.9220 O.co2   1  UNL1       -0.5446
     33 O          57.9162   86.0121    7.6955 O.co2   1  UNL1       -0.5446
@<TRIPOS>UNITY_ATOM_ATTR
32 1
charge -1
@<TRIPOS>BOND
     1     1     2    1
     2     2     3   ar
     3     3    20    1
     4    20    21    2
     5    20    22   am
     6    22    24    1
     7    24    25   ar
     8    25    26   ar
     9    26    27   ar
    10    27    31    1
    11    31    32   ar
    12    31    33   ar
    13    27    28   ar
    14    28    29   ar
    15    29    30    1
    16     3     4   ar
    17     4     5   ar
    18     5     6   ar
    19     6     7    1
    20     6     8   ar
    21     8     9   ar
    22     9    10   ar
    23    10    11   ar
    24    11    12    2
    25    11    13   ar
    26    13    14    1
    27    14    15   ar
    28    15    16   ar
    29    16    17   ar
    30    17    18   ar
    31    18    19   ar
    32    13     2   ar
    33    19    14   ar
    34    29    24   ar
    35    10     4   ar
    36    22    23    1
@<TRIPOS>MOLECULE
*****
 33 36 0 0 0
SMALL
GASTEIGER

@<TRIPOS>ATOM
      1 C          57.6407   92.9205   -0.5225 C.3     1  UNL1        0.0506
      2 C          58.7806   93.8832   -0.6781 C.ar    1  UNL1        0.0489
      3 C          59.9341   93.8409    0.2798 C.ar    1  UNL1        0.0659
      4 C          61.0739   94.8036    0.1242 C.ar    1  UNL1        0.0106
      5 C          62.2274   94.7613    1.0821 C.ar    1  UNL1        0.0070
      6 C          63.3671   95.7239    0.9265 C.ar    1  UNL1        0.0346
      7 BR         64.5207   95.6816    1.8844 Br      1  UNL1       -0.0490
      8 C          63.3534   96.7288   -0.1870 C.ar    1  UNL1        0.0068
      9 C          62.1999   96.7711   -1.1449 C.ar    1  UNL1        0.0053
     10 C          61.0602   95.8085   -0.9893 C.ar    1  UNL1        0.0567
     11 C          59.9066   95.8508   -1.9472 C.ar    1  UNL1        0.2644
     12 O          59.8928   96.8557   -3.0607 O.2     1  UNL1       -0.2666
     13 N          58.7668   94.8881   -1.7916 N.ar    1  UNL1       -0.2781
     14 C          57.6132   94.9304   -2.7495 C.ar    1  UNL1        0.0665
     15 C          56.4164   95.7818   -2.4451 C.ar    1  UNL1        0.0176
     16 C          55.2629   95.8241   -3.4029 C.ar    1  UNL1        0.0015
     17 C          55.3062   95.0150   -4.6652 C.ar    1  UNL1        0.0001
     18 C          56.5030   94.1636   -4.9697 C.ar    1  UNL1        0.0015
     19 C          57.6565   94.1213   -4.0118 C.ar    1  UNL1        0.0176
     20 C          59.9478   92.8360    1.3933 C.2     1  UNL1        0.2506
     21 O          60.5004   91.4617    1.1565 O.2     1  UNL1       -0.2698
     22 N          59.4090   93.2053    2.7436 N.am    1  UNL1       -0.2786
     23 H          59.0463   94.1072    2.8990 H       1  UNL1        0.1552
     24 C          59.4228   92.2003    3.8571 C.ar    1  UNL1        0.0784
     25 C          58.1377   91.7904    4.5134 C.ar    1  UNL1        0.0170
     26 C          58.1514   90.7855    5.6269 C.ar    1  UNL1        0.0025
     27 C          59.4502   90.1905    6.0841 C.ar    1  UNL1        0.0163
     28 C          60.7352   90.6003    5.4279 C.ar    1  UNL1        0.0320
     29 C          60.7215   91.6053    4.3144 C.ar    1  UNL1        0.1535
     30 F          62.0066   92.0152    3.6581 F       1  UNL1       -0.2029
     31 C          59.4640   89.1855    7.1976 C.2     1  UNL1        0.0729
     32 O          60.2861   89.4388    8.4264 O.co2   1  UNL1       -0.5446
     33 O          58.6556   87.9272    7.0823 O.co2   1  UNL1       -0.5446
@<TRIPOS>UNITY_ATOM_ATTR
32 1
charge -1
@<TRIPOS>BOND
     1     1     2    1
     2     2     3   ar
     3     3    20    1
     4    20    21    2
     5    20    22   am
     6    22    24    1
     7    24    25   ar
     8    25    26   ar
     9    26    27   ar
    10    27    31    1
    11    31    32   ar
    12    31    33   ar
    13    27    28   ar
    14    28    29   ar
    15    29    30    1
    16     3     4   ar
    17     4     5   ar
    18     5     6   ar
    19     6     7    1
    20     6     8   ar
    21     8     9   ar
    22     9    10   ar
    23    10    11   ar
    24    11    12    2
    25    11    13   ar
    26    13    14    1
    27    14    15   ar
    28    15    16   ar
    29    16    17   ar
    30    17    18   ar
    31    18    19   ar
    32    13     2   ar
    33    19    14   ar
    34    29    24   ar
    35    10     4   ar
    36    22    23    1
@<TRIPOS>MOLECULE
*****
 33 36 0 0 0
SMALL
GASTEIGER

@<TRIPOS>ATOM
      1 C          64.0448   88.0187   13.4690 C.3     1  UNL1        0.0506
      2 C          63.1038   87.6199   12.3710 C.ar    1  UNL1        0.0489
      3 C          62.6152   88.6462   11.3922 C.ar    1  UNL1        0.0659
      4 C          61.6742   88.2474   10.2942 C.ar    1  UNL1        0.0106
      5 C          61.1857   89.2737    9.3155 C.ar    1  UNL1        0.0070
      6 C          60.2447   88.8749    8.2176 C.ar    1  UNL1        0.0346
      7 BR         59.7561   89.9012    7.2388 Br      1  UNL1       -0.0490
      8 C          59.7923   87.4497    8.0984 C.ar    1  UNL1        0.0068
      9 C          60.2808   86.4234    9.0771 C.ar    1  UNL1        0.0053
     10 C          61.2218   86.8222   10.1751 C.ar    1  UNL1        0.0567
     11 C          61.7104   85.7959   11.1539 C.ar    1  UNL1        0.2644
     12 O          61.2580   84.3707   11.0347 O.2     1  UNL1       -0.2666
     13 N          62.6514   86.1947   12.2518 N.ar    1  UNL1       -0.2781
     14 C          63.1399   85.1684   13.2306 C.ar    1  UNL1        0.0665
     15 C          64.2836   84.2689   12.8659 C.ar    1  UNL1        0.0176
     16 C          64.7722   83.2426   13.8446 C.ar    1  UNL1        0.0015
     17 C          64.1172   83.1158   15.1880 C.ar    1  UNL1        0.0001
     18 C          62.9735   84.0153   15.5527 C.ar    1  UNL1        0.0015
     19 C          62.4849   85.0416   14.5740 C.ar    1  UNL1        0.0176
     20 C          63.0676   90.0714   11.5114 C.2     1  UNL1        0.2506
     21 O          62.1098   91.1254   11.9823 O.2     1  UNL1       -0.2698
     22 N          64.4778   90.4425   11.1598 N.am    1  UNL1       -0.2786
     23 H          65.1064   89.7507   10.8508 H       1  UNL1        0.1552
     24 C          64.9302   91.8677   11.2790 C.ar    1  UNL1        0.0784
     25 C          64.7927   92.7985   10.1107 C.ar    1  UNL1        0.0170
     26 C          65.2451   94.2236   10.2299 C.ar    1  UNL1        0.0025
     27 C          65.8350   94.7180   11.5174 C.ar    1  UNL1        0.0163
     28 C          65.9725   93.7873   12.6856 C.ar    1  UNL1        0.0320
     29 C          65.5201   92.3621   12.5664 C.ar    1  UNL1        0.1535
     30 F          65.6577   91.4314   13.7347 F       1  UNL1       -0.2029
     31 C          66.2874   96.1432   11.6366 C.2     1  UNL1        0.0729
     32 O          66.1829   96.8558   12.9524 O.co2   1  UNL1       -0.5446
     33 O          66.8445   96.8559   10.4399 O.co2   1  UNL1       -0.5446
@<TRIPOS>UNITY_ATOM_ATTR
32 1
charge -1
@<TRIPOS>BOND
     1     1     2    1
     2     2     3   ar
     3     3    20    1
     4    20    21    2
     5    20    22   am
     6    22    24    1
     7    24    25   ar
     8    25    26   ar
     9    26    27   ar
    10    27    31    1
    11    31    32   ar
    12    31    33   ar
    13    27    28   ar
    14    28    29   ar
    15    29    30    1
    16     3     4   ar
    17     4     5   ar
    18     5     6   ar
    19     6     7    1
    20     6     8   ar
    21     8     9   ar
    22     9    10   ar
    23    10    11   ar
    24    11    12    2
    25    11    13   ar
    26    13    14    1
    27    14    15   ar
    28    15    16   ar
    29    16    17   ar
    30    17    18   ar
    31    18    19   ar
    32    13     2   ar
    33    19    14   ar
    34    29    24   ar
    35    10     4   ar
    36    22    23    1
@<TRIPOS>MOLECULE
*****
 33 36 0 0 0
SMALL
GASTEIGER

@<TRIPOS>ATOM
      1 C          64.6768   87.7940   14.5203 C.3     1  UNL1        0.0506
      2 C          63.8521   88.4421   13.4479 C.ar    1  UNL1        0.0489
      3 C          63.1178   87.5949   12.4514 C.ar    1  UNL1        0.0659
      4 C          62.2931   88.2430   11.3791 C.ar    1  UNL1        0.0106
      5 C          61.5589   87.3958   10.3825 C.ar    1  UNL1        0.0070
      6 C          60.7343   88.0440    9.3103 C.ar    1  UNL1        0.0346
      7 BR         60.0000   87.1967    8.3137 Br      1  UNL1       -0.0490
      8 C          60.6438   89.5393    9.2345 C.ar    1  UNL1        0.0068
      9 C          61.3781   90.3865   10.2310 C.ar    1  UNL1        0.0053
     10 C          62.2027   89.7384   11.3033 C.ar    1  UNL1        0.0567
     11 C          62.9370   90.5856   12.2999 C.ar    1  UNL1        0.2644
     12 O          62.8466   92.0809   12.2242 O.2     1  UNL1       -0.2666
     13 N          63.7616   89.9374   13.3722 N.ar    1  UNL1       -0.2781
     14 C          64.4959   90.7847   14.3688 C.ar    1  UNL1        0.0665
     15 C          65.8091   91.4086   13.9997 C.ar    1  UNL1        0.0176
     16 C          66.5434   92.2557   14.9962 C.ar    1  UNL1        0.0015
     17 C          65.9645   92.4790   16.3618 C.ar    1  UNL1        0.0001
     18 C          64.6513   91.8551   16.7309 C.ar    1  UNL1        0.0015
     19 C          63.9170   91.0079   15.7344 C.ar    1  UNL1        0.0176
     20 C          63.2083   86.0995   12.5272 C.2     1  UNL1        0.2506
     21 O          64.0761   85.4523   13.5655 O.2     1  UNL1       -0.2698
     22 N          62.4309   85.2514   11.5647 N.am    1  UNL1       -0.2786
     23 H          61.8613   85.6762   10.8833 H       1  UNL1        0.1552
     24 C          62.5213   83.7561   11.6405 C.ar    1  UNL1        0.0784
     25 C          62.9008   82.9651   10.4237 C.ar    1  UNL1        0.0170
     26 C          62.9912   81.4697   10.4995 C.ar    1  UNL1        0.0025
     27 C          62.7022   80.7654   11.7920 C.ar    1  UNL1        0.0163
     28 C          62.3227   81.5564   13.0086 C.ar    1  UNL1        0.0320
     29 C          62.2323   83.0517   12.9328 C.ar    1  UNL1        0.1535
     30 F          61.8527   83.8428   14.1496 F       1  UNL1       -0.2029
     31 C          62.7926   79.2700   11.8677 C.2     1  UNL1        0.0729
     32 O          63.0849   78.6018   13.1784 O.co2   1  UNL1       -0.5446
     33 O          62.5907   78.4429   10.6327 O.co2   1  UNL1       -0.5446
@<TRIPOS>UNITY_ATOM_ATTR
32 1
charge -1
@<TRIPOS>BOND
     1     1     2    1
     2     2     3   ar
     3     3    20    1
     4    20    21    2
     5    20    22   am
     6    22    24    1
     7    24    25   ar
     8    25    26   ar
     9    26    27   ar
    10    27    31    1
    11    31    32   ar
    12    31    33   ar
    13    27    28   ar
    14    28    29   ar
    15    29    30    1
    16     3     4   ar
    17     4     5   ar
    18     5     6   ar
    19     6     7    1
    20     6     8   ar
    21     8     9   ar
    22     9    10   ar
    23    10    11   ar
    24    11    12    2
    25    11    13   ar
    26    13    14    1
    27    14    15   ar
    28    15    16   ar
    29    16    17   ar
    30    17    18   ar
    31    18    19   ar
    32    13     2   ar
    33    19    14   ar
    34    29    24   ar
    35    10     4   ar
    36    22    23    1
