@<TRIPOS>MOLECULE
*****
 38 43 0 0 0
SMALL
GASTEIGER

@<TRIPOS>ATOM
      1 C          63.5397   89.3731   13.2972 C.ar    1  UNL1        0.0447
      2 C          64.3124   89.5030   14.5763 C.ar    1  UNL1        0.0156
      3 C          64.7952   88.2745   15.2888 C.ar    1  UNL1        0.0159
      4 C          64.5054   86.9162   14.7223 C.ar    1  UNL1        0.0507
      5 C          63.7327   86.7863   13.4432 C.ar    1  UNL1        0.0193
      6 C          63.2499   88.0148   12.7306 C.ar    1  UNL1        0.0157
      7 C          63.5999   85.3258   13.1282 C.2     1  UNL1        0.0623
      8 C          62.8995   84.7408   11.9377 C.2     1  UNL1        0.0929
      9 C          64.2905   84.5530   14.2126 C.2     1  UNL1        0.2498
     10 O          64.4019   83.0595   14.2969 O.2     1  UNL1       -0.2698
     11 N          64.8501   85.5359   15.1978 N.am    1  UNL1       -0.2804
     12 H          65.3550   85.3141   16.0133 H       1  UNL1        0.1552
     13 C          62.8478   83.2530   11.7542 C.2     1  UNL1        0.3754
     14 N          63.1494   82.5100   10.4866 N.2     1  UNL1       -0.0308
     15 C          62.9735   81.0447   10.7551 C.2     1  UNL1        0.2321
     16 C          63.1338   79.8374    9.8794 C.2     1  UNL1        0.0498
     17 C          62.8839   78.4677   10.4373 C.2     1  UNL1       -0.0002
     18 C          62.4737   78.3051   11.8709 C.2     1  UNL1       -0.0172
     19 C          62.3133   79.5124   12.7467 C.3     1  UNL1        0.1037
     20 C          62.5632   80.8822   12.1887 C.2     1  UNL1        0.2178
     21 N          62.4855   82.2470   12.8062 N.2     1  UNL1       -0.0347
     22 C          62.2507   85.6436   10.9307 C.ar    1  UNL1        0.0098
     23 C          62.7285   85.6470    9.5088 C.ar    1  UNL1        0.0004
     24 C          62.0798   86.5497    8.5017 C.ar    1  UNL1        0.0023
     25 C          60.9533   87.4491    8.9165 C.ar    1  UNL1        0.0296
     26 C          60.4755   87.4458   10.3384 C.ar    1  UNL1        0.1401
     27 F          59.3490   88.3452   10.7532 F       1  UNL1       -0.2042
     28 C          61.1243   86.5430   11.3455 C.ar    1  UNL1        0.0299
     29 N          63.0569   90.6016   12.5845 N.pl3   1  UNL1       -0.3339
     30 H          62.0920   90.7482   12.4548 H       1  UNL1        0.1468
     31 N          66.0185   93.6170   11.0397 N.3     1  UNL1       -0.2726
     32 C          66.0361   93.2217   12.4866 C.3     1  UNL1        0.0738
     33 C          65.0489   92.2165   13.0015 C.3     1  UNL1        0.0368
     34 C          64.0441   91.6067   12.0696 C.3     1  UNL1        0.0718
     35 C          64.0265   92.0020   10.6227 C.3     1  UNL1        0.0368
     36 C          65.0137   93.0071   10.1078 C.3     1  UNL1        0.0738
     37 C          67.8992   94.2730    9.3716 C.3     1  UNL1        0.0188
     38 C          67.0056   94.6221   10.5248 C.3     1  UNL1        0.0721
@<TRIPOS>BOND
     1    37    38    1
     2    38    31    1
     3    31    32    1
     4    32    33    1
     5    33    34    1
     6    34    29    1
     7    29     1    1
     8     1     2   ar
     9     2     3   ar
    10     3     4   ar
    11     4     5   ar
    12     5     6   ar
    13     5     7    1
    14     7     8    2
    15     8    22    1
    16    22    23   ar
    17    23    24   ar
    18    24    25   ar
    19    25    26   ar
    20    26    27    1
    21    26    28   ar
    22     8    13    1
    23    13    14    2
    24    14    15    1
    25    15    16    2
    26    16    17    1
    27    17    18    2
    28    18    19    1
    29    19    20    1
    30    20    21    2
    31     7     9    1
    32     9    10    2
    33     9    11   am
    34    34    35    1
    35    35    36    1
    36    36    31    1
    37     6     1   ar
    38    28    22   ar
    39    21    13    1
    40    11     4    1
    41    20    15    1
    42    29    30    1
    43    11    12    1
@<TRIPOS>MOLECULE
*****
 38 43 0 0 0
SMALL
GASTEIGER

@<TRIPOS>ATOM
      1 C          61.5800   88.1977   11.2195 C.ar    1  UNL1        0.0447
      2 C          61.2895   88.8528    9.9018 C.ar    1  UNL1        0.0156
      3 C          62.0225   90.1003    9.5067 C.ar    1  UNL1        0.0159
      4 C          63.0461   90.6929   10.4293 C.ar    1  UNL1        0.0507
      5 C          63.3367   90.0378   11.7470 C.ar    1  UNL1        0.0193
      6 C          62.6036   88.7902   12.1421 C.ar    1  UNL1        0.0157
      7 C          64.3910   90.8458   12.4438 C.2     1  UNL1        0.0623
      8 C          64.9807   90.5510   13.7911 C.2     1  UNL1        0.0929
      9 C          64.7521   92.0002   11.5567 C.2     1  UNL1        0.2498
     10 O          65.7663   93.0626   11.8613 O.2     1  UNL1       -0.2698
     11 N          63.9209   91.9057   10.3117 N.am    1  UNL1       -0.2804
     12 H          63.9452   92.5301    9.5509 H       1  UNL1        0.1552
     13 C          66.0332   91.4540   14.3630 C.2     1  UNL1        0.3754
     14 N          65.9960   92.9534   14.3764 N.2     1  UNL1       -0.0308
     15 C          67.2475   93.4422   15.0436 C.2     1  UNL1        0.2321
     16 C          67.7537   94.8229   15.3393 C.2     1  UNL1        0.0498
     17 C          69.0704   95.0061   16.0341 C.2     1  UNL1       -0.0002
     18 C          69.8809   93.8087   16.4331 C.2     1  UNL1       -0.0172
     19 C          69.3747   92.4279   16.1373 C.3     1  UNL1        0.1037
     20 C          68.0580   92.2447   15.4425 C.2     1  UNL1        0.2178
     21 N          67.3075   91.0159   15.0219 N.2     1  UNL1       -0.0347
     22 C          64.5181   89.3533   14.5667 C.ar    1  UNL1        0.0098
     23 C          63.5437   89.5209   15.6948 C.ar    1  UNL1        0.0004
     24 C          63.0810   88.3233   16.4704 C.ar    1  UNL1        0.0023
     25 C          63.5926   86.9580   16.1179 C.ar    1  UNL1        0.0296
     26 C          64.5670   86.7904   14.9898 C.ar    1  UNL1        0.1401
     27 F          65.0786   85.4251   14.6373 F       1  UNL1       -0.2042
     28 C          65.0297   87.9881   14.2142 C.ar    1  UNL1        0.0299
     29 N          60.8470   86.9501   11.6147 N.pl3   1  UNL1       -0.3339
     30 H          59.8688   86.9679   11.7250 H       1  UNL1        0.1468
     31 N          63.1188   83.1258   12.2960 N.3     1  UNL1       -0.2726
     32 C          62.6162   83.9182   13.4662 C.3     1  UNL1        0.0738
     33 C          61.8589   85.1930   13.2391 C.3     1  UNL1        0.0368
     34 C          61.6042   85.6753   11.8418 C.3     1  UNL1        0.0718
     35 C          62.1069   84.8829   10.6715 C.3     1  UNL1        0.0368
     36 C          62.8642   83.6082   10.8986 C.3     1  UNL1        0.0738
     37 C          63.3316   80.8115   13.4574 C.3     1  UNL1        0.0188
     38 C          63.8761   81.8511   12.5231 C.3     1  UNL1        0.0721
@<TRIPOS>BOND
     1    37    38    1
     2    38    31    1
     3    31    32    1
     4    32    33    1
     5    33    34    1
     6    34    29    1
     7    29     1    1
     8     1     2   ar
     9     2     3   ar
    10     3     4   ar
    11     4     5   ar
    12     5     6   ar
    13     5     7    1
    14     7     8    2
    15     8    22    1
    16    22    23   ar
    17    23    24   ar
    18    24    25   ar
    19    25    26   ar
    20    26    27    1
    21    26    28   ar
    22     8    13    1
    23    13    14    2
    24    14    15    1
    25    15    16    2
    26    16    17    1
    27    17    18    2
    28    18    19    1
    29    19    20    1
    30    20    21    2
    31     7     9    1
    32     9    10    2
    33     9    11   am
    34    34    35    1
    35    35    36    1
    36    36    31    1
    37     6     1   ar
    38    28    22   ar
    39    21    13    1
    40    11     4    1
    41    20    15    1
    42    29    30    1
    43    11    12    1
@<TRIPOS>MOLECULE
*****
 38 43 0 0 0
SMALL
GASTEIGER

@<TRIPOS>ATOM
      1 C          61.5830   88.1915   11.2202 C.ar    1  UNL1        0.0447
      2 C          61.2944   88.8460    9.9018 C.ar    1  UNL1        0.0156
      3 C          62.0280   90.0934    9.5073 C.ar    1  UNL1        0.0159
      4 C          63.0503   90.6863   10.4311 C.ar    1  UNL1        0.0507
      5 C          63.3389   90.0318   11.7495 C.ar    1  UNL1        0.0193
      6 C          62.6053   88.7844   12.1441 C.ar    1  UNL1        0.0157
      7 C          64.3922   90.8401   12.4475 C.2     1  UNL1        0.0623
      8 C          64.9800   90.5459   13.7958 C.2     1  UNL1        0.0929
      9 C          64.7546   91.9941   11.5605 C.2     1  UNL1        0.2498
     10 O          65.7684   93.0567   11.8661 O.2     1  UNL1       -0.2698
     11 N          63.9252   91.8992   10.3142 N.am    1  UNL1       -0.2804
     12 H          63.9507   92.5232    9.5532 H       1  UNL1        0.1552
     13 C          66.0316   91.4491   14.3689 C.2     1  UNL1        0.3754
     14 N          67.3039   91.0113   15.0319 N.2     1  UNL1       -0.0308
     15 C          68.0542   92.2403   15.4523 C.2     1  UNL1        0.2321
     16 C          69.3692   92.4239   16.1501 C.2     1  UNL1        0.0498
     17 C          69.8756   93.8047   16.4448 C.2     1  UNL1       -0.0002
     18 C          69.0670   95.0020   16.0416 C.2     1  UNL1       -0.0172
     19 C          67.7519   94.8185   15.3437 C.3     1  UNL1        0.1037
     20 C          67.2455   93.4376   15.0490 C.2     1  UNL1        0.2178
     21 N          65.9955   92.9486   14.3795 N.2     1  UNL1       -0.0347
     22 C          64.5162   89.3485   14.5712 C.ar    1  UNL1        0.0098
     23 C          63.5493   89.5180   15.7054 C.ar    1  UNL1        0.0004
     24 C          63.0855   88.3207   16.4809 C.ar    1  UNL1        0.0023
     25 C          63.5885   86.9538   16.1220 C.ar    1  UNL1        0.0296
     26 C          64.5553   86.7843   14.9878 C.ar    1  UNL1        0.1401
     27 F          65.0583   85.4175   14.6290 F       1  UNL1       -0.2042
     28 C          65.0192   87.9817   14.2124 C.ar    1  UNL1        0.0299
     29 N          60.8494   86.9440   11.6149 N.pl3   1  UNL1       -0.3339
     30 H          59.8706   86.9607   11.7190 H       1  UNL1        0.1468
     31 N          63.1226   83.1255   12.3227 N.3     1  UNL1       -0.2726
     32 C          62.8838   83.6075   10.9225 C.3     1  UNL1        0.0738
     33 C          62.1260   84.8804   10.6865 C.3     1  UNL1        0.0368
     34 C          61.6071   85.6712   11.8508 C.3     1  UNL1        0.0718
     35 C          61.8460   85.1891   13.2510 C.3     1  UNL1        0.0368
     36 C          62.6038   83.9162   13.4869 C.3     1  UNL1        0.0738
     37 C          63.3777   80.8550   13.5597 C.3     1  UNL1        0.0188
     38 C          63.8804   81.8526   12.5586 C.3     1  UNL1        0.0721
@<TRIPOS>BOND
     1    37    38    1
     2    38    31    1
     3    31    32    1
     4    32    33    1
     5    33    34    1
     6    34    29    1
     7    29     1    1
     8     1     2   ar
     9     2     3   ar
    10     3     4   ar
    11     4     5   ar
    12     5     6   ar
    13     5     7    1
    14     7     8    2
    15     8    22    1
    16    22    23   ar
    17    23    24   ar
    18    24    25   ar
    19    25    26   ar
    20    26    27    1
    21    26    28   ar
    22     8    13    1
    23    13    14    2
    24    14    15    1
    25    15    16    2
    26    16    17    1
    27    17    18    2
    28    18    19    1
    29    19    20    1
    30    20    21    2
    31     7     9    1
    32     9    10    2
    33     9    11   am
    34    34    35    1
    35    35    36    1
    36    36    31    1
    37     6     1   ar
    38    28    22   ar
    39    21    13    1
    40    11     4    1
    41    20    15    1
    42    29    30    1
    43    11    12    1
@<TRIPOS>MOLECULE
*****
 38 43 0 0 0
SMALL
GASTEIGER

@<TRIPOS>ATOM
      1 C          62.9167   89.8419   12.8708 C.ar    1  UNL1        0.0447
      2 C          62.5507   90.5361   11.5925 C.ar    1  UNL1        0.0156
      3 C          62.2619   89.7330   10.3590 C.ar    1  UNL1        0.0159
      4 C          62.3392   88.2356   10.4038 C.ar    1  UNL1        0.0507
      5 C          62.7052   87.5414   11.6821 C.ar    1  UNL1        0.0193
      6 C          62.9940   88.3446   12.9156 C.ar    1  UNL1        0.0157
      7 C          62.7022   86.0637   11.4243 C.2     1  UNL1        0.0623
      8 C          63.0127   84.9931   12.4280 C.2     1  UNL1        0.0929
      9 C          62.3343   85.8447    9.9867 C.2     1  UNL1        0.2498
     10 O          62.2122   84.5164    9.3004 O.2     1  UNL1       -0.2698
     11 N          62.1099   87.1870    9.3560 N.am    1  UNL1       -0.2804
     12 H          61.8566   87.3509    8.4189 H       1  UNL1        0.1552
     13 C          62.9693   83.5496   12.0225 C.2     1  UNL1        0.3754
     14 N          63.3298   83.0016   10.6735 N.2     1  UNL1       -0.0308
     15 C          63.1412   81.5139   10.7121 C.2     1  UNL1        0.2321
     16 C          63.3422   80.4495    9.6745 C.2     1  UNL1        0.0498
     17 C          63.0662   79.0137   10.0097 C.2     1  UNL1       -0.0002
     18 C          62.5891   78.6424   11.3825 C.2     1  UNL1       -0.0172
     19 C          62.3881   79.7069   12.4201 C.3     1  UNL1        0.1037
     20 C          62.6641   81.1426   12.0849 C.2     1  UNL1        0.2178
     21 N          62.5579   82.4008   12.8948 N.2     1  UNL1       -0.0347
     22 C          63.3664   85.3659   13.8372 C.ar    1  UNL1        0.0098
     23 C          64.7667   85.7860   14.1729 C.ar    1  UNL1        0.0004
     24 C          65.1206   86.1587   15.5821 C.ar    1  UNL1        0.0023
     25 C          64.0741   86.1115   16.6556 C.ar    1  UNL1        0.0296
     26 C          62.6738   85.6914   16.3201 C.ar    1  UNL1        0.1401
     27 F          61.6273   85.6441   17.3936 F       1  UNL1       -0.2042
     28 C          62.3199   85.3186   14.9108 C.ar    1  UNL1        0.0299
     29 N          63.2055   90.6450   14.1044 N.pl3   1  UNL1       -0.3339
     30 H          62.4967   90.7957   14.7708 H       1  UNL1        0.1468
     31 N          67.3117   92.3658   14.7587 N.3     1  UNL1       -0.2726
     32 C          66.3380   92.2950   15.8975 C.3     1  UNL1        0.0738
     33 C          64.9692   91.7214   15.6794 C.3     1  UNL1        0.0368
     34 C          64.5742   91.2186   14.3225 C.3     1  UNL1        0.0718
     35 C          65.5480   91.2894   13.1837 C.3     1  UNL1        0.0368
     36 C          66.9167   91.8630   13.4018 C.3     1  UNL1        0.0738
     37 C          68.9147   93.9188   16.0886 C.3     1  UNL1        0.0188
     38 C          68.6804   92.9394   14.9769 C.3     1  UNL1        0.0721
@<TRIPOS>BOND
     1    37    38    1
     2    38    31    1
     3    31    32    1
     4    32    33    1
     5    33    34    1
     6    34    29    1
     7    29     1    1
     8     1     2   ar
     9     2     3   ar
    10     3     4   ar
    11     4     5   ar
    12     5     6   ar
    13     5     7    1
    14     7     8    2
    15     8    22    1
    16    22    23   ar
    17    23    24   ar
    18    24    25   ar
    19    25    26   ar
    20    26    27    1
    21    26    28   ar
    22     8    13    1
    23    13    14    2
    24    14    15    1
    25    15    16    2
    26    16    17    1
    27    17    18    2
    28    18    19    1
    29    19    20    1
    30    20    21    2
    31     7     9    1
    32     9    10    2
    33     9    11   am
    34    34    35    1
    35    35    36    1
    36    36    31    1
    37     6     1   ar
    38    28    22   ar
    39    21    13    1
    40    11     4    1
    41    20    15    1
    42    29    30    1
    43    11    12    1
@<TRIPOS>MOLECULE
*****
 38 43 0 0 0
SMALL
GASTEIGER

@<TRIPOS>ATOM
      1 C          63.4054   88.1556   15.2226 C.ar    1  UNL1        0.0447
      2 C          63.9519   87.0344   16.0558 C.ar    1  UNL1        0.0156
      3 C          64.1373   85.6735   15.4530 C.ar    1  UNL1        0.0159
      4 C          63.7763   85.4337   14.0170 C.ar    1  UNL1        0.0507
      5 C          63.2298   86.5548   13.1838 C.ar    1  UNL1        0.0193
      6 C          63.0443   87.9158   13.7865 C.ar    1  UNL1        0.0157
      7 C          62.9645   86.0223   11.8068 C.2     1  UNL1        0.0623
      8 C          62.4134   86.8030   10.6506 C.2     1  UNL1        0.0929
      9 C          63.3470   84.5720   11.7890 C.2     1  UNL1        0.2498
     10 O          63.2456   83.6478   10.6119 O.2     1  UNL1       -0.2698
     11 N          63.8488   84.2082   13.1550 N.am    1  UNL1       -0.2804
     12 H          64.1693   83.3209   13.4364 H       1  UNL1        0.1552
     13 C          62.2006   86.1321    9.3260 C.2     1  UNL1        0.3754
     14 N          60.8751   85.7757    8.7211 N.2     1  UNL1       -0.0308
     15 C          61.1313   85.1231    7.3949 C.2     1  UNL1        0.2321
     16 C          60.2051   84.5655    6.3551 C.2     1  UNL1        0.0498
     17 C          60.7627   83.9611    5.1006 C.2     1  UNL1       -0.0002
     18 C          62.2465   83.9143    4.8859 C.2     1  UNL1       -0.0172
     19 C          63.1728   84.4719    5.9258 C.3     1  UNL1        0.1037
     20 C          62.6151   85.0763    7.1803 C.2     1  UNL1        0.2178
     21 N          63.2760   85.6999    8.3738 N.2     1  UNL1       -0.0347
     22 C          62.0751   88.2546   10.8190 C.ar    1  UNL1        0.0098
     23 C          63.1263   89.3007   10.5938 C.ar    1  UNL1        0.0004
     24 C          62.7881   90.7524   10.7621 C.ar    1  UNL1        0.0023
     25 C          61.3986   91.1579   11.1557 C.ar    1  UNL1        0.0296
     26 C          60.3474   90.1119   11.3809 C.ar    1  UNL1        0.1401
     27 F          58.9579   90.5175   11.7744 F       1  UNL1       -0.2042
     28 C          60.6857   88.6602   11.2125 C.ar    1  UNL1        0.0299
     29 N          63.2199   89.5166   15.8253 N.pl3   1  UNL1       -0.3339
     30 H          62.4146   89.7144   16.3560 H       1  UNL1        0.1468
     31 N          66.3444   92.6957   15.2078 N.3     1  UNL1       -0.2726
     32 C          65.4607   92.7379   16.4191 C.3     1  UNL1        0.0738
     33 C          64.4192   91.6781   16.6250 C.3     1  UNL1        0.0368
     34 C          64.2614   90.5763   15.6195 C.3     1  UNL1        0.0718
     35 C          65.1451   90.5341   14.4081 C.3     1  UNL1        0.0368
     36 C          66.1866   91.5938   14.2023 C.3     1  UNL1        0.0738
     37 C          68.6535   93.7268   15.8035 C.3     1  UNL1        0.0188
     38 C          67.3858   93.7553   15.0020 C.3     1  UNL1        0.0721
@<TRIPOS>BOND
     1    37    38    1
     2    38    31    1
     3    31    32    1
     4    32    33    1
     5    33    34    1
     6    34    29    1
     7    29     1    1
     8     1     2   ar
     9     2     3   ar
    10     3     4   ar
    11     4     5   ar
    12     5     6   ar
    13     5     7    1
    14     7     8    2
    15     8    22    1
    16    22    23   ar
    17    23    24   ar
    18    24    25   ar
    19    25    26   ar
    20    26    27    1
    21    26    28   ar
    22     8    13    1
    23    13    14    2
    24    14    15    1
    25    15    16    2
    26    16    17    1
    27    17    18    2
    28    18    19    1
    29    19    20    1
    30    20    21    2
    31     7     9    1
    32     9    10    2
    33     9    11   am
    34    34    35    1
    35    35    36    1
    36    36    31    1
    37     6     1   ar
    38    28    22   ar
    39    21    13    1
    40    11     4    1
    41    20    15    1
    42    29    30    1
    43    11    12    1
