@<TRIPOS>MOLECULE
*****
 52 59 0 0 0
SMALL
GASTEIGER

@<TRIPOS>ATOM
      1 C          61.2066   88.6813    9.1658 C.2     1  UNL1        0.1542
      2 N          60.5062   89.7972    8.4489 N.2     1  UNL1       -0.0655
      3 C          59.6172   89.4958    7.2788 C.cat   1  UNL1        0.4642
      4 N          59.4287   88.0784    6.8258 N.2     1  UNL1        0.0296
      5 C          60.1291   86.9624    7.5427 C.2     1  UNL1        0.3685
      6 N          60.1355   85.4781    7.3260 N.2     1  UNL1       -0.0340
      7 C          61.0284   84.8622    8.3621 C.2     1  UNL1        0.2321
      8 C          61.5739   85.9659    9.2192 C.2     1  UNL1        0.0439
      9 C          61.0181   87.2638    8.7127 C.3     1  UNL1        0.1946
     10 N          65.1352   90.6534   13.8860 N.am    1  UNL1       -0.2526
     11 C          64.8711   89.2845   14.4394 C.3     1  UNL1        0.1229
     12 C          63.9692   88.3389   13.7028 C.3     1  UNL1        0.1280
     13 N          63.3314   88.7623   12.4129 N.ar    1  UNL1       -0.3206
     14 C          62.4044   88.0525   11.4712 C.ar    1  UNL1        0.0787
     15 C          62.0956   88.9827   10.3358 C.ar    1  UNL1        0.0498
     16 C          62.8317   90.2675   10.5757 C.ar    1  UNL1        0.0259
     17 C          63.5955   90.1312   11.8595 C.ar    1  UNL1        0.1147
     18 C          64.4974   91.0768   12.5960 C.2     1  UNL1        0.2687
     19 O          64.7615   92.4457   12.0426 O.2     1  UNL1       -0.2680
     20 C          65.5552   92.2758   15.8712 C.ar    1  UNL1       -0.0088
     21 C          66.4571   93.2215   16.6077 C.ar    1  UNL1       -0.0031
     22 C          67.8410   93.4903   16.0953 C.ar    1  UNL1       -0.0006
     23 C          68.3229   92.8134   14.8465 C.ar    1  UNL1       -0.0031
     24 C          67.4210   91.8678   14.1101 C.ar    1  UNL1       -0.0088
     25 C          66.0371   91.5991   14.6225 C.ar    1  UNL1        0.0462
     26 C          63.7806   90.6188   16.7961 C.3     1  UNL1        0.0051
     27 C          64.1713   92.0071   16.3836 C.3     1  UNL1        0.0276
     28 C          67.9031   91.1910   12.8612 C.3     1  UNL1        0.0276
     29 C          68.1159   91.9897   11.6095 C.3     1  UNL1        0.0051
     30 N          58.9168   90.6118    6.5620 N.pl3   1  UNL1       -0.1896
     31 H          58.0604   90.9560    6.9045 H       1  UNL1        0.2524
     32 C          59.5213   91.2034    5.3231 C.ar    1  UNL1        0.1435
     33 C          60.9537   90.9207    4.9790 C.ar    1  UNL1        0.0356
     34 C          61.5582   91.5122    3.7401 C.ar    1  UNL1        0.0174
     35 C          60.7303   92.3865    2.8454 C.ar    1  UNL1        0.0511
     36 C          59.2979   92.6692    3.1896 C.ar    1  UNL1        0.0541
     37 C          58.6935   92.0776    4.4285 C.ar    1  UNL1        0.1684
     38 N          61.3348   92.9780    1.6066 N.pl3   1  UNL1       -0.3073
     39 C          62.3809   94.0471    1.7194 C.3     1  UNL1        0.0922
     40 C          62.9854   94.6386    0.4806 C.3     1  UNL1        0.0374
     41 C          62.5437   94.1611   -0.8710 C.3     1  UNL1        0.0610
     42 C          61.4976   93.0920   -0.9838 C.3     1  UNL1        0.0374
     43 C          60.8931   92.5005    0.2551 C.3     1  UNL1        0.0922
     44 N          63.1482   94.7526   -2.1099 N.3     1  UNL1       -0.2715
     45 C          64.4342   95.5199   -2.0241 C.3     1  UNL1        0.0896
     46 C          65.0387   96.1114   -3.2629 C.3     1  UNL1        0.0897
     47 N          64.3572   95.9356   -4.5875 N.3     1  UNL1       -0.2691
     48 C          64.9617   96.5271   -5.8263 C.3     1  UNL1        0.0897
     49 C          63.0712   95.1683   -4.6733 C.3     1  UNL1        0.0897
     50 C          62.4667   94.5768   -3.4345 C.3     1  UNL1        0.0896
     51 O          57.2611   92.3602    4.7727 O.3     1  UNL1       -0.4687
     52 C          56.2713   91.2355    4.8460 C.3     1  UNL1        0.2526
@<TRIPOS>BOND
     1    26    27    1
     2    27    20    1
     3    20    21   ar
     4    21    22   ar
     5    22    23   ar
     6    23    24   ar
     7    24    28    1
     8    28    29    1
     9    24    25   ar
    10    25    10    1
    11    10    11    1
    12    11    12    1
    13    12    13    1
    14    13    14   ar
    15    14    15   ar
    16    15     1    1
    17     1     2    2
    18     2     3    1
    19     3    30    1
    20    30    32    1
    21    32    33   ar
    22    33    34   ar
    23    34    35   ar
    24    35    38    1
    25    38    39    1
    26    39    40    1
    27    40    41    1
    28    41    44    1
    29    44    45    1
    30    45    46    1
    31    46    47    1
    32    47    48    1
    33    47    49    1
    34    49    50    1
    35    41    42    1
    36    42    43    1
    37    35    36   ar
    38    36    37   ar
    39    37    51    1
    40    51    52    1
    41     3     4    2
    42     4     5    1
    43     5     6    2
    44     6     7    1
    45     7     8    2
    46     8     9    1
    47    15    16   ar
    48    16    17   ar
    49    17    18    1
    50    18    19    2
    51    25    20   ar
    52    18    10   am
    53    17    13   ar
    54     9     1    1
    55    37    32   ar
    56     9     5    1
    57    43    38    1
    58    50    44    1
    59    30    31    1
@<TRIPOS>MOLECULE
*****
 52 59 0 0 0
SMALL
GASTEIGER

@<TRIPOS>ATOM
      1 C          61.1310   88.6272    9.0659 C.2     1  UNL1        0.1542
      2 N          60.4454   89.7486    8.3433 N.2     1  UNL1       -0.0655
      3 C          59.5628   89.4542    7.1666 C.cat   1  UNL1        0.4642
      4 N          59.3660   88.0382    6.7126 N.2     1  UNL1        0.0296
      5 C          60.0517   86.9167    7.4352 C.2     1  UNL1        0.3685
      6 N          60.0474   85.4323    7.2190 N.2     1  UNL1       -0.0340
      7 C          60.9273   84.8095    8.2621 C.2     1  UNL1        0.2321
      8 C          61.4754   85.9089    9.1229 C.2     1  UNL1        0.0439
      9 C          60.9342   87.2112    8.6119 C.3     1  UNL1        0.1946
     10 N          65.0143   90.5795   13.8316 N.am    1  UNL1       -0.2526
     11 C          64.7857   89.1910   14.3507 C.3     1  UNL1        0.1229
     12 C          63.9071   88.2415   13.5912 C.3     1  UNL1        0.1280
     13 N          63.2572   88.6807   12.3127 N.ar    1  UNL1       -0.3206
     14 C          62.3472   87.9715   11.3541 C.ar    1  UNL1        0.0787
     15 C          62.0135   88.9217   10.2425 C.ar    1  UNL1        0.0498
     16 C          62.7172   90.2183   10.5141 C.ar    1  UNL1        0.0259
     17 C          63.4858   90.0694   11.7936 C.ar    1  UNL1        0.1147
     18 C          64.3644   91.0187   12.5530 C.2     1  UNL1        0.2687
     19 O          64.5931   92.4074   12.0339 O.2     1  UNL1       -0.2680
     20 C          67.2642   91.8552   14.0782 C.ar    1  UNL1       -0.0088
     21 C          68.1428   92.8046   14.8376 C.ar    1  UNL1       -0.0031
     22 C          67.6500   93.4279   16.1098 C.ar    1  UNL1       -0.0006
     23 C          66.2786   93.1017   16.6227 C.ar    1  UNL1       -0.0031
     24 C          65.4001   92.1523   15.8632 C.ar    1  UNL1       -0.0088
     25 C          65.8929   91.5290   14.5910 C.ar    1  UNL1        0.0462
     26 C          67.9680   92.0809   11.5874 C.3     1  UNL1        0.0051
     27 C          67.7571   91.2319   12.8059 C.3     1  UNL1        0.0276
     28 C          64.0287   91.8261   16.3761 C.3     1  UNL1        0.0276
     29 C          63.7210   90.4427   16.8674 C.3     1  UNL1        0.0051
     30 N          58.8772   90.5757    6.4441 N.pl3   1  UNL1       -0.1896
     31 H          58.0040   90.9033    6.7593 H       1  UNL1        0.2524
     32 C          59.5221   91.1981    5.2413 C.ar    1  UNL1        0.1435
     33 C          60.9604   90.9095    4.9278 C.ar    1  UNL1        0.0356
     34 C          61.6053   91.5319    3.7250 C.ar    1  UNL1        0.0174
     35 C          60.8119   92.4428    2.8356 C.ar    1  UNL1        0.0511
     36 C          59.3737   92.7313    3.1491 C.ar    1  UNL1        0.0541
     37 C          58.7288   92.1089    4.3519 C.ar    1  UNL1        0.1684
     38 N          61.4568   93.0652    1.6328 N.pl3   1  UNL1       -0.3073
     39 C          61.0884   92.5952    0.2568 C.3     1  UNL1        0.0922
     40 C          61.7334   93.2176   -0.9460 C.3     1  UNL1        0.0374
     41 C          62.7467   94.3099   -0.7727 C.3     1  UNL1        0.0610
     42 C          63.1151   94.7798    0.6033 C.3     1  UNL1        0.0374
     43 C          62.4701   94.1575    1.8061 C.3     1  UNL1        0.0922
     44 N          63.3916   94.9323   -1.9755 N.3     1  UNL1       -0.2715
     45 C          62.8017   94.7182   -3.3379 C.3     1  UNL1        0.0896
     46 C          63.4466   95.3406   -4.5407 C.3     1  UNL1        0.0897
     47 N          64.6815   96.1771   -4.3811 N.3     1  UNL1       -0.2691
     48 C          65.3264   96.7994   -5.5840 C.3     1  UNL1        0.0897
     49 C          65.2714   96.3912   -3.0187 C.3     1  UNL1        0.0897
     50 C          64.6264   95.7688   -1.8159 C.3     1  UNL1        0.0896
     51 O          57.2906   92.3974    4.6654 O.3     1  UNL1       -0.4687
     52 C          56.3245   91.2670    4.8625 C.3     1  UNL1        0.2526
@<TRIPOS>BOND
     1    26    27    1
     2    27    20    1
     3    20    21   ar
     4    21    22   ar
     5    22    23   ar
     6    23    24   ar
     7    24    28    1
     8    28    29    1
     9    24    25   ar
    10    25    10    1
    11    10    11    1
    12    11    12    1
    13    12    13    1
    14    13    14   ar
    15    14    15   ar
    16    15     1    1
    17     1     2    2
    18     2     3    1
    19     3    30    1
    20    30    32    1
    21    32    33   ar
    22    33    34   ar
    23    34    35   ar
    24    35    38    1
    25    38    39    1
    26    39    40    1
    27    40    41    1
    28    41    44    1
    29    44    45    1
    30    45    46    1
    31    46    47    1
    32    47    48    1
    33    47    49    1
    34    49    50    1
    35    41    42    1
    36    42    43    1
    37    35    36   ar
    38    36    37   ar
    39    37    51    1
    40    51    52    1
    41     3     4    2
    42     4     5    1
    43     5     6    2
    44     6     7    1
    45     7     8    2
    46     8     9    1
    47    15    16   ar
    48    16    17   ar
    49    17    18    1
    50    18    19    2
    51    25    20   ar
    52    18    10   am
    53    17    13   ar
    54     9     1    1
    55    37    32   ar
    56     9     5    1
    57    43    38    1
    58    50    44    1
    59    30    31    1
