@<TRIPOS>MOLECULE
*****
 37 39 0 0 0
SMALL
GASTEIGER

@<TRIPOS>ATOM
      1 C          63.5713   83.5402   12.8686 C.ar    1  UNL1        0.0053
      2 C          64.2906   83.6583   14.1795 C.ar    1  UNL1        0.0033
      3 C          64.5637   85.0117   14.7658 C.ar    1  UNL1        0.0382
      4 C          64.1175   86.2469   14.0412 C.ar    1  UNL1        0.1528
      5 C          63.3982   86.1288   12.7303 C.ar    1  UNL1        0.0882
      6 C          63.1251   84.7754   12.1440 C.ar    1  UNL1        0.0181
      7 N          62.9521   87.3640   12.0056 N.am    1  UNL1       -0.2512
      8 C          63.2252   88.7174   12.5919 C.2     1  UNL1        0.2742
      9 O          62.8514   89.5356   11.9703 O.2     1  UNL1       -0.2705
     10 C          63.9445   88.8355   13.9029 C.3     1  UNL1        0.2867
     11 C          64.5863   89.4577   15.1075 C.3     1  UNL1        0.0623
     12 O          64.3907   87.6003   14.6276 O.3     1  UNL1       -0.4641
     13 C          63.6644   81.8994   10.8563 C.ar    1  UNL1        0.0645
     14 N          63.3913   80.5461   10.2699 N.ar    1  UNL1       -0.2183
     15 C          62.7519   79.4801   11.1095 C.ar    1  UNL1        0.2145
     16 N          62.4787   78.1267   10.5231 N.pl3   1  UNL1       -0.3274
     17 N          62.3856   79.7674   12.5354 N.ar    1  UNL1       -0.1995
     18 C          62.6588   81.1208   13.1218 C.ar    1  UNL1        0.1293
     19 N          62.2925   81.4082   14.5477 N.pl3   1  UNL1       -0.3425
     20 C          63.2981   82.1868   12.2822 C.ar    1  UNL1        0.0449
     21 H          62.7191   77.9382    9.5872 H       1  UNL1        0.1452
     22 H          62.0591   77.4271   11.0741 H       1  UNL1        0.1452
     23 H          61.8729   80.7085   15.0988 H       1  UNL1        0.1437
     24 H          62.4718   82.2964   14.9326 H       1  UNL1        0.1437
     25 C          63.4506   83.8829    9.1919 C.3     1  UNL1        0.0067
     26 C          64.3038   82.9655   10.0167 C.3     1  UNL1        0.0460
     27 C          63.7212   90.2868   13.5966 C.3     1  UNL1        0.4387
     28 F          63.4979   91.7382   13.2903 F       1  UNL1       -0.1661
     29 F          62.3580   90.2080   14.2173 F       1  UNL1       -0.1661
     30 F          64.6878   90.4728   13.1203 F       1  UNL1       -0.1661
     31 C          62.2328   87.2459   10.6947 C.3     1  UNL1        0.1196
     32 C          60.7332   87.2274   10.6610 C.3     1  UNL1        0.1113
     33 N          59.9525   88.2187   11.4722 N.am    1  UNL1       -0.3026
     34 C          59.7717   89.6210   10.9713 C.2     1  UNL1        0.2230
     35 C          58.9910   90.6122   11.7825 C.3     1  UNL1        0.0946
     36 O          60.3715   90.0320    9.6593 O.2     1  UNL1       -0.2751
     37 H          59.5589   87.9489   12.3333 H       1  UNL1        0.1495
@<TRIPOS>BOND
     1    25    26    1
     2    26    13    1
     3    13    14   ar
     4    14    15   ar
     5    15    16    1
     6    15    17   ar
     7    17    18   ar
     8    18    19    1
     9    18    20   ar
    10    20     1    1
    11     1     2   ar
    12     2     3   ar
    13     3     4   ar
    14     4     5   ar
    15     5     6   ar
    16     5     7    1
    17     7    31    1
    18    31    32    1
    19    32    33    1
    20    33    34   am
    21    34    35    1
    22    34    36    2
    23     7     8   am
    24     8     9    2
    25     8    10    1
    26    10    11    1
    27    10    27    1
    28    27    28    1
    29    27    29    1
    30    27    30    1
    31    10    12    1
    32    20    13   ar
    33     6     1   ar
    34    12     4    1
    35    16    21    1
    36    16    22    1
    37    19    23    1
    38    19    24    1
    39    33    37    1
@<TRIPOS>MOLECULE
*****
 37 39 0 0 0
SMALL
GASTEIGER

@<TRIPOS>ATOM
      1 C          63.3611   90.6753   12.0738 C.ar    1  UNL1        0.0053
      2 C          62.8134   91.6244   11.0495 C.ar    1  UNL1        0.0033
      3 C          61.9710   91.1064    9.9218 C.ar    1  UNL1        0.0382
      4 C          61.6761   89.6393    9.8183 C.ar    1  UNL1        0.1528
      5 C          62.2238   88.6902   10.8427 C.ar    1  UNL1        0.0882
      6 C          63.0662   89.2082   11.9704 C.ar    1  UNL1        0.0181
      7 N          61.9289   87.2231   10.7392 N.am    1  UNL1       -0.2512
      8 C          61.0864   86.7051    9.6115 C.2     1  UNL1        0.2742
      9 O          60.9444   85.6215    9.6470 O.2     1  UNL1       -0.2705
     10 C          60.5387   87.6542    8.5871 C.3     1  UNL1        0.2867
     11 C          59.7995   88.1542    7.3814 C.3     1  UNL1        0.0623
     12 O          60.8336   89.1213    8.6905 O.3     1  UNL1       -0.4641
     13 C          65.4239   92.0154   12.9100 C.ar    1  UNL1        0.0645
     14 N          66.2664   92.5334   14.0377 N.ar    1  UNL1       -0.2183
     15 C          65.8887   92.2292   15.4572 C.ar    1  UNL1        0.2145
     16 N          66.7312   92.7472   16.5849 N.pl3   1  UNL1       -0.3274
     17 N          64.6684   91.4071   15.7489 N.ar    1  UNL1       -0.1995
     18 C          63.8259   90.8891   14.6211 C.ar    1  UNL1        0.1293
     19 N          62.6056   90.0670   14.9127 N.pl3   1  UNL1       -0.3425
     20 C          64.2036   91.1933   13.2017 C.ar    1  UNL1        0.0449
     21 H          67.5321   93.2868   16.3935 H       1  UNL1        0.1452
     22 H          66.4833   92.5475   17.5166 H       1  UNL1        0.1452
     23 H          62.3577   89.8673   15.8444 H       1  UNL1        0.1437
     24 H          62.0527   89.7270   14.1725 H       1  UNL1        0.1437
     25 C          65.8465   93.7413   11.0145 C.3     1  UNL1        0.0067
     26 C          65.8016   92.3196   11.4905 C.3     1  UNL1        0.0460
     27 C          59.9872   86.3608    8.0649 C.3     1  UNL1        0.4387
     28 F          59.4356   85.0673    7.5428 F       1  UNL1       -0.1661
     29 F          61.2999   86.0693    7.4004 F       1  UNL1       -0.1661
     30 F          58.9883   86.4568    8.4994 F       1  UNL1       -0.1661
     31 C          62.4765   86.2740   11.7635 C.3     1  UNL1        0.1196
     32 C          63.1774   85.0218   11.3268 C.3     1  UNL1        0.1113
     33 N          62.6370   83.6811   11.7278 N.am    1  UNL1       -0.3026
     34 C          63.4431   82.4415   11.4753 C.2     1  UNL1        0.2230
     35 C          62.9028   81.1009   11.8762 C.3     1  UNL1        0.0946
     36 O          64.7895   82.5427   10.8218 O.2     1  UNL1       -0.2751
     37 H          61.7533   83.6148   12.1567 H       1  UNL1        0.1495
@<TRIPOS>BOND
     1    25    26    1
     2    26    13    1
     3    13    14   ar
     4    14    15   ar
     5    15    16    1
     6    15    17   ar
     7    17    18   ar
     8    18    19    1
     9    18    20   ar
    10    20     1    1
    11     1     2   ar
    12     2     3   ar
    13     3     4   ar
    14     4     5   ar
    15     5     6   ar
    16     5     7    1
    17     7    31    1
    18    31    32    1
    19    32    33    1
    20    33    34   am
    21    34    35    1
    22    34    36    2
    23     7     8   am
    24     8     9    2
    25     8    10    1
    26    10    11    1
    27    10    27    1
    28    27    28    1
    29    27    29    1
    30    27    30    1
    31    10    12    1
    32    20    13   ar
    33     6     1   ar
    34    12     4    1
    35    16    21    1
    36    16    22    1
    37    19    23    1
    38    19    24    1
    39    33    37    1
@<TRIPOS>MOLECULE
*****
 37 39 0 0 0
SMALL
GASTEIGER

@<TRIPOS>ATOM
      1 C          62.5104   89.5571   12.2213 C.ar    1  UNL1        0.0053
      2 C          62.2632   89.3011   13.6784 C.ar    1  UNL1        0.0033
      3 C          63.1211   89.9670   14.7130 C.ar    1  UNL1        0.0382
      4 C          64.2263   90.8890   14.2905 C.ar    1  UNL1        0.1528
      5 C          64.4735   91.1451   12.8333 C.ar    1  UNL1        0.0882
      6 C          63.6156   90.4791   11.7987 C.ar    1  UNL1        0.0181
      7 N          65.5787   92.0671   12.4108 N.am    1  UNL1       -0.2512
      8 C          66.4366   92.7331   13.4454 C.2     1  UNL1        0.2742
      9 O          67.2049   93.3792   13.0118 O.2     1  UNL1       -0.2705
     10 C          66.1894   92.4770   14.9026 C.3     1  UNL1        0.2867
     11 C          66.3447   92.5500   16.3928 C.3     1  UNL1        0.0623
     12 O          65.0842   91.5550   15.3251 O.3     1  UNL1       -0.4641
     13 C          61.8073   87.4240   10.9153 C.ar    1  UNL1        0.0645
     14 N          60.9494   86.7581    9.8807 N.ar    1  UNL1       -0.2183
     15 C          59.9367   87.5592    9.1173 C.ar    1  UNL1        0.2145
     16 N          59.0788   86.8932    8.0827 N.pl3   1  UNL1       -0.3274
     17 N          59.7819   89.0263    9.3886 N.ar    1  UNL1       -0.1995
     18 C          60.6399   89.6923   10.4233 C.ar    1  UNL1        0.1293
     19 N          60.4851   91.1594   10.6946 N.pl3   1  UNL1       -0.3425
     20 C          61.6525   88.8912   11.1866 C.ar    1  UNL1        0.0449
     21 H          59.1804   85.9303    7.9046 H       1  UNL1        0.1452
     22 H          58.4142   87.4191    7.5817 H       1  UNL1        0.1452
     23 H          59.8205   91.6852   10.1936 H       1  UNL1        0.1437
     24 H          61.0482   91.5965   11.3737 H       1  UNL1        0.1437
     25 C          62.5243   85.2004   12.0518 C.3     1  UNL1        0.0067
     26 C          62.8200   86.6229   11.6787 C.3     1  UNL1        0.0460
     27 C          67.3484   93.4243   14.9976 C.3     1  UNL1        0.4387
     28 F          68.5075   94.3718   15.0926 F       1  UNL1       -0.1661
     29 F          68.2675   92.2720   15.2758 F       1  UNL1       -0.1661
     30 F          66.7865   94.3424   14.8047 F       1  UNL1       -0.1661
     31 C          65.8259   92.3232   10.9537 C.3     1  UNL1        0.1196
     32 C          65.1274   93.4564   10.2622 C.3     1  UNL1        0.1113
     33 N          65.5814   94.8678   10.4899 N.am    1  UNL1       -0.3026
     34 C          66.6862   95.4442    9.6550 C.2     1  UNL1        0.2230
     35 C          67.1401   96.8556    9.8826 C.3     1  UNL1        0.0946
     36 O          67.3371   94.6092    8.5924 O.2     1  UNL1       -0.2751
     37 H          65.1542   95.4159   11.1873 H       1  UNL1        0.1495
@<TRIPOS>BOND
     1    25    26    1
     2    26    13    1
     3    13    14   ar
     4    14    15   ar
     5    15    16    1
     6    15    17   ar
     7    17    18   ar
     8    18    19    1
     9    18    20   ar
    10    20     1    1
    11     1     2   ar
    12     2     3   ar
    13     3     4   ar
    14     4     5   ar
    15     5     6   ar
    16     5     7    1
    17     7    31    1
    18    31    32    1
    19    32    33    1
    20    33    34   am
    21    34    35    1
    22    34    36    2
    23     7     8   am
    24     8     9    2
    25     8    10    1
    26    10    11    1
    27    10    27    1
    28    27    28    1
    29    27    29    1
    30    27    30    1
    31    10    12    1
    32    20    13   ar
    33     6     1   ar
    34    12     4    1
    35    16    21    1
    36    16    22    1
    37    19    23    1
    38    19    24    1
    39    33    37    1
@<TRIPOS>MOLECULE
*****
 37 39 0 0 0
SMALL
GASTEIGER

@<TRIPOS>ATOM
      1 C          63.0216   90.5106   12.0176 C.ar    1  UNL1        0.0053
      2 C          62.1945   91.4427   11.1827 C.ar    1  UNL1        0.0033
      3 C          61.3426   90.9002   10.0737 C.ar    1  UNL1        0.0382
      4 C          61.3178   89.4257    9.7996 C.ar    1  UNL1        0.1528
      5 C          62.1449   88.4936   10.6344 C.ar    1  UNL1        0.0882
      6 C          62.9968   89.0361   11.7434 C.ar    1  UNL1        0.0181
      7 N          62.1201   87.0191   10.3603 N.am    1  UNL1       -0.2512
      8 C          61.2681   86.4766    9.2513 C.2     1  UNL1        0.2742
      9 O          61.3363   85.3898    9.1527 O.2     1  UNL1       -0.2705
     10 C          60.4410   87.4087    8.4164 C.3     1  UNL1        0.2867
     11 C          59.4906   87.8864    7.3587 C.3     1  UNL1        0.0623
     12 O          60.4658   88.8833    8.6905 O.3     1  UNL1       -0.4641
     13 C          65.0324   91.9518   12.8112 C.ar    1  UNL1        0.0645
     14 N          65.8844   92.4942   13.9202 N.ar    1  UNL1       -0.2183
     15 C          65.5776   92.1379   15.3447 C.ar    1  UNL1        0.2145
     16 N          66.4296   92.6803   16.4536 N.pl3   1  UNL1       -0.3274
     17 N          64.4188   91.2391   15.6601 N.ar    1  UNL1       -0.1995
     18 C          63.5668   90.6967   14.5510 C.ar    1  UNL1        0.1293
     19 N          62.4080   89.7979   14.8664 N.pl3   1  UNL1       -0.3425
     20 C          63.8736   91.0530   13.1266 C.ar    1  UNL1        0.0449
     21 H          67.1901   93.2702   16.2466 H       1  UNL1        0.1452
     22 H          66.2282   92.4464   17.3885 H       1  UNL1        0.1452
     23 H          62.2067   89.5641   15.8013 H       1  UNL1        0.1437
     24 H          61.8488   89.4419   14.1385 H       1  UNL1        0.1437
     25 C          66.7423   92.6556   10.9861 C.3     1  UNL1        0.0067
     26 C          65.3392   92.3081   11.3868 C.3     1  UNL1        0.0460
     27 C          60.0861   86.1001    7.7749 C.3     1  UNL1        0.4387
     28 F          59.7312   84.7914    7.1335 F       1  UNL1       -0.1661
     29 F          61.4636   86.0144    7.1877 F       1  UNL1       -0.1661
     30 F          59.0578   86.0458    8.1429 F       1  UNL1       -0.1661
     31 C          62.9472   86.0870   11.1952 C.3     1  UNL1        0.1196
     32 C          62.3209   85.3530   12.3437 C.3     1  UNL1        0.1113
     33 N          63.1883   84.6920   13.3737 N.am    1  UNL1       -0.3026
     34 C          63.9466   85.5264   14.3629 C.2     1  UNL1        0.2230
     35 C          64.8139   84.8655   15.3928 C.3     1  UNL1        0.0946
     36 O          63.8376   87.0220   14.3221 O.2     1  UNL1       -0.2751
     37 H          63.2598   83.7104   13.4004 H       1  UNL1        0.1495
@<TRIPOS>BOND
     1    25    26    1
     2    26    13    1
     3    13    14   ar
     4    14    15   ar
     5    15    16    1
     6    15    17   ar
     7    17    18   ar
     8    18    19    1
     9    18    20   ar
    10    20     1    1
    11     1     2   ar
    12     2     3   ar
    13     3     4   ar
    14     4     5   ar
    15     5     6   ar
    16     5     7    1
    17     7    31    1
    18    31    32    1
    19    32    33    1
    20    33    34   am
    21    34    35    1
    22    34    36    2
    23     7     8   am
    24     8     9    2
    25     8    10    1
    26    10    11    1
    27    10    27    1
    28    27    28    1
    29    27    29    1
    30    27    30    1
    31    10    12    1
    32    20    13   ar
    33     6     1   ar
    34    12     4    1
    35    16    21    1
    36    16    22    1
    37    19    23    1
    38    19    24    1
    39    33    37    1
@<TRIPOS>MOLECULE
*****
 37 39 0 0 0
SMALL
GASTEIGER

@<TRIPOS>ATOM
      1 C          63.6088   83.6675   12.8908 C.ar    1  UNL1        0.0053
      2 C          64.3352   83.7765   14.1986 C.ar    1  UNL1        0.0033
      3 C          64.6034   85.1254   14.7973 C.ar    1  UNL1        0.0382
      4 C          64.1450   86.3653   14.0883 C.ar    1  UNL1        0.1528
      5 C          63.4186   86.2562   12.7805 C.ar    1  UNL1        0.0882
      6 C          63.1504   84.9073   12.1818 C.ar    1  UNL1        0.0181
      7 N          62.9603   87.4961   12.0715 N.am    1  UNL1       -0.2512
      8 C          63.2284   88.8450   12.6702 C.2     1  UNL1        0.2742
      9 O          62.8458   89.6672   12.0594 O.2     1  UNL1       -0.2705
     10 C          63.9549   88.9541   13.9781 C.3     1  UNL1        0.2867
     11 C          64.6000   89.5677   15.1852 C.3     1  UNL1        0.0623
     12 O          64.4132   87.7142   14.6871 O.3     1  UNL1       -0.4641
     13 C          63.6883   82.0523   10.8574 C.ar    1  UNL1        0.0645
     14 N          63.4202   80.7034   10.2586 N.ar    1  UNL1       -0.2183
     15 C          62.8043   79.6207   11.0944 C.ar    1  UNL1        0.2145
     16 N          62.5361   78.2718   10.4956 N.pl3   1  UNL1       -0.3274
     17 N          62.4565   79.8870   12.5291 N.ar    1  UNL1       -0.1995
     18 C          62.7247   81.2359   13.1279 C.ar    1  UNL1        0.1293
     19 N          62.3770   81.5022   14.5625 N.pl3   1  UNL1       -0.3425
     20 C          63.3406   82.3185   12.2920 C.ar    1  UNL1        0.0449
     21 H          62.7643   78.0971    9.5540 H       1  UNL1        0.1452
     22 H          62.1319   77.5613   11.0442 H       1  UNL1        0.1452
     23 H          61.9728   80.7916   15.1111 H       1  UNL1        0.1437
     24 H          62.5530   82.3875   14.9555 H       1  UNL1        0.1437
     25 C          63.4367   83.9972    9.1533 C.3     1  UNL1        0.0067
     26 C          64.3042   83.1349   10.0216 C.3     1  UNL1        0.0460
     27 C          63.7206   90.4070   13.6883 C.3     1  UNL1        0.4387
     28 F          63.4863   91.8600   13.3984 F       1  UNL1       -0.1661
     29 F          65.1032   90.5159   13.1168 F       1  UNL1       -0.1661
     30 F          62.6994   90.4573   14.0760 F       1  UNL1       -0.1661
     31 C          62.2338   87.3870   10.7637 C.3     1  UNL1        0.1196
     32 C          60.7343   87.3584   10.7388 C.3     1  UNL1        0.1113
     33 N          59.9862   88.1468    9.7049 N.am    1  UNL1       -0.3026
     34 C          59.7982   87.5870    8.3260 C.2     1  UNL1        0.2230
     35 C          59.0502   88.3752    7.2921 C.3     1  UNL1        0.0946
     36 O          60.3583   86.2388    7.9811 O.2     1  UNL1       -0.2751
     37 H          59.6186   89.0316    9.9313 H       1  UNL1        0.1495
@<TRIPOS>BOND
     1    25    26    1
     2    26    13    1
     3    13    14   ar
     4    14    15   ar
     5    15    16    1
     6    15    17   ar
     7    17    18   ar
     8    18    19    1
     9    18    20   ar
    10    20     1    1
    11     1     2   ar
    12     2     3   ar
    13     3     4   ar
    14     4     5   ar
    15     5     6   ar
    16     5     7    1
    17     7    31    1
    18    31    32    1
    19    32    33    1
    20    33    34   am
    21    34    35    1
    22    34    36    2
    23     7     8   am
    24     8     9    2
    25     8    10    1
    26    10    11    1
    27    10    27    1
    28    27    28    1
    29    27    29    1
    30    27    30    1
    31    10    12    1
    32    20    13   ar
    33     6     1   ar
    34    12     4    1
    35    16    21    1
    36    16    22    1
    37    19    23    1
    38    19    24    1
    39    33    37    1
@<TRIPOS>MOLECULE
*****
 37 39 0 0 0
SMALL
GASTEIGER

@<TRIPOS>ATOM
      1 C          63.7258   90.7315   12.0897 C.ar    1  UNL1        0.0053
      2 C          63.1665   91.7121   11.1020 C.ar    1  UNL1        0.0033
      3 C          62.2257   91.2443   10.0315 C.ar    1  UNL1        0.0382
      4 C          61.8441   89.7960    9.9487 C.ar    1  UNL1        0.1528
      5 C          62.4034   88.8155   10.9364 C.ar    1  UNL1        0.0882
      6 C          63.3442   89.2832   12.0069 C.ar    1  UNL1        0.0181
      7 N          62.0219   87.3672   10.8536 N.am    1  UNL1       -0.2512
      8 C          61.0810   86.8994    9.7831 C.2     1  UNL1        0.2742
      9 O          60.8819   85.8252    9.8288 O.2     1  UNL1       -0.2705
     10 C          60.5217   87.8800    8.7953 C.3     1  UNL1        0.2867
     11 C          59.7350   88.4231    7.6394 C.3     1  UNL1        0.0623
     12 O          60.9033   89.3283    8.8781 O.3     1  UNL1       -0.4641
     13 C          64.3853   90.8787   14.5984 C.ar    1  UNL1        0.0645
     14 N          65.3261   91.3463   15.6689 N.ar    1  UNL1       -0.2183
     15 C          66.5483   92.1346   15.3014 C.ar    1  UNL1        0.2145
     16 N          67.4891   92.6022   16.3720 N.pl3   1  UNL1       -0.3274
     17 N          66.8296   92.4551   13.8633 N.ar    1  UNL1       -0.1995
     18 C          65.8888   91.9874   12.7928 C.ar    1  UNL1        0.1293
     19 N          66.1701   92.3079   11.3547 N.pl3   1  UNL1       -0.3425
     20 C          64.6667   91.1992   13.1603 C.ar    1  UNL1        0.0449
     21 H          67.3045   92.3919   17.3159 H       1  UNL1        0.1452
     22 H          68.2913   93.1196   16.1308 H       1  UNL1        0.1452
     23 H          66.9722   92.8253   11.1134 H       1  UNL1        0.1437
     24 H          65.5526   92.0010   10.6520 H       1  UNL1        0.1437
     25 C          63.0973   89.3807   16.2857 C.3     1  UNL1        0.0067
     26 C          63.1631   90.0904   14.9659 C.3     1  UNL1        0.0460
     27 C          59.8670   86.6204    8.3111 C.3     1  UNL1        0.4387
     28 F          59.2122   85.3606    7.8269 F       1  UNL1       -0.1661
     29 F          61.1245   86.2462    7.5842 F       1  UNL1       -0.1661
     30 F          58.8988   86.7792    8.7941 F       1  UNL1       -0.1661
     31 C          62.5811   86.3866   11.8414 C.3     1  UNL1        0.1196
     32 C          63.1823   85.0988   11.3615 C.3     1  UNL1        0.1113
     33 N          62.6281   83.7889   11.8381 N.am    1  UNL1       -0.3026
     34 C          63.4079   82.5245   11.6303 C.2     1  UNL1        0.2230
     35 C          62.8537   81.2147   12.1068 C.3     1  UNL1        0.0946
     36 O          64.7420   82.5701   10.9460 O.2     1  UNL1       -0.2751
     37 H          61.7525   83.7591   12.2872 H       1  UNL1        0.1495
@<TRIPOS>BOND
     1    25    26    1
     2    26    13    1
     3    13    14   ar
     4    14    15   ar
     5    15    16    1
     6    15    17   ar
     7    17    18   ar
     8    18    19    1
     9    18    20   ar
    10    20     1    1
    11     1     2   ar
    12     2     3   ar
    13     3     4   ar
    14     4     5   ar
    15     5     6   ar
    16     5     7    1
    17     7    31    1
    18    31    32    1
    19    32    33    1
    20    33    34   am
    21    34    35    1
    22    34    36    2
    23     7     8   am
    24     8     9    2
    25     8    10    1
    26    10    11    1
    27    10    27    1
    28    27    28    1
    29    27    29    1
    30    27    30    1
    31    10    12    1
    32    20    13   ar
    33     6     1   ar
    34    12     4    1
    35    16    21    1
    36    16    22    1
    37    19    23    1
    38    19    24    1
    39    33    37    1
@<TRIPOS>MOLECULE
*****
 37 39 0 0 0
SMALL
GASTEIGER

@<TRIPOS>ATOM
      1 C          63.5501   83.4013   12.5295 C.ar    1  UNL1        0.0053
      2 C          64.2515   83.5098   13.8510 C.ar    1  UNL1        0.0033
      3 C          64.4852   84.8570   14.4676 C.ar    1  UNL1        0.0382
      4 C          64.0176   86.0958   13.7628 C.ar    1  UNL1        0.1528
      5 C          63.3162   85.9873   12.4414 C.ar    1  UNL1        0.0882
      6 C          63.0825   84.6401   11.8247 C.ar    1  UNL1        0.0181
      7 N          62.8486   87.2261   11.7366 N.am    1  UNL1       -0.2512
      8 C          63.0823   88.5733   12.3532 C.2     1  UNL1        0.2742
      9 O          62.6960   89.3949   11.7438 O.2     1  UNL1       -0.2705
     10 C          63.7837   88.6818   13.6747 C.3     1  UNL1        0.2867
     11 C          64.3966   89.2944   14.8991 C.3     1  UNL1        0.0623
     12 O          64.2513   87.4430   14.3796 O.3     1  UNL1       -0.4641
     13 C          62.6213   80.9807   12.6969 C.ar    1  UNL1        0.0645
     14 N          62.3876   79.6334   12.0803 N.ar    1  UNL1       -0.2183
     15 C          62.8488   79.3595   10.6794 C.ar    1  UNL1        0.2145
     16 N          62.6151   78.0123   10.0628 N.pl3   1  UNL1       -0.3274
     17 N          63.5439   80.4329    9.8953 N.ar    1  UNL1       -0.1995
     18 C          63.7776   81.7802   10.5120 C.ar    1  UNL1        0.1293
     19 N          64.4727   82.8535    9.7279 N.pl3   1  UNL1       -0.3425
     20 C          63.3164   82.0540   11.9128 C.ar    1  UNL1        0.0449
     21 H          62.1589   77.3078   10.5774 H       1  UNL1        0.1452
     22 H          62.9178   77.8325    9.1434 H       1  UNL1        0.1452
     23 H          64.7754   82.6737    8.8085 H       1  UNL1        0.1437
     24 H          64.6261   83.7378   10.1327 H       1  UNL1        0.1437
     25 C          60.7135   81.0868   14.4573 C.3     1  UNL1        0.0067
     26 C          62.1601   81.2546   14.0978 C.3     1  UNL1        0.0460
     27 C          63.5289   90.1333   13.3952 C.3     1  UNL1        0.4387
     28 F          63.2741   91.5849   13.1155 F       1  UNL1       -0.1661
     29 F          62.1952   90.0299   14.0736 F       1  UNL1       -0.1661
     30 F          64.4713   90.3372   12.8794 F       1  UNL1       -0.1661
     31 C          62.1472   87.1176   10.4151 C.3     1  UNL1        0.1196
     32 C          60.6717   87.3726   10.3260 C.3     1  UNL1        0.1113
     33 N          60.1425   88.3814    9.3500 N.am    1  UNL1       -0.3026
     34 C          59.7018   87.9443    7.9845 C.2     1  UNL1        0.2230
     35 C          59.1726   88.9530    7.0086 C.3     1  UNL1        0.0946
     36 O          59.7902   86.4984    7.5949 O.2     1  UNL1       -0.2751
     37 H          60.0845   89.3303    9.6057 H       1  UNL1        0.1495
@<TRIPOS>BOND
     1    25    26    1
     2    26    13    1
     3    13    14   ar
     4    14    15   ar
     5    15    16    1
     6    15    17   ar
     7    17    18   ar
     8    18    19    1
     9    18    20   ar
    10    20     1    1
    11     1     2   ar
    12     2     3   ar
    13     3     4   ar
    14     4     5   ar
    15     5     6   ar
    16     5     7    1
    17     7    31    1
    18    31    32    1
    19    32    33    1
    20    33    34   am
    21    34    35    1
    22    34    36    2
    23     7     8   am
    24     8     9    2
    25     8    10    1
    26    10    11    1
    27    10    27    1
    28    27    28    1
    29    27    29    1
    30    27    30    1
    31    10    12    1
    32    20    13   ar
    33     6     1   ar
    34    12     4    1
    35    16    21    1
    36    16    22    1
    37    19    23    1
    38    19    24    1
    39    33    37    1
@<TRIPOS>MOLECULE
*****
 37 39 0 0 0
SMALL
GASTEIGER

@<TRIPOS>ATOM
      1 C          63.4270   84.9898   13.5234 C.ar    1  UNL1        0.0053
      2 C          64.1450   85.6173   14.6812 C.ar    1  UNL1        0.0033
      3 C          64.4336   87.0893   14.6761 C.ar    1  UNL1        0.0382
      4 C          64.0042   87.9337   13.5130 C.ar    1  UNL1        0.1528
      5 C          63.2862   87.3062   12.3552 C.ar    1  UNL1        0.0882
      6 C          62.9976   85.8342   12.3604 C.ar    1  UNL1        0.0181
      7 N          62.8568   88.1506   11.1922 N.am    1  UNL1       -0.2512
      8 C          63.1454   89.6225   11.1870 C.2     1  UNL1        0.2742
      9 O          62.7830   90.1258   10.2864 O.2     1  UNL1       -0.2705
     10 C          63.8634   90.2501   12.3449 C.3     1  UNL1        0.2867
     11 C          64.5103   91.2972   13.2023 C.3     1  UNL1        0.0623
     12 O          64.2928   89.4057   13.5079 O.3     1  UNL1       -0.4641
     13 C          63.6534   82.6487   12.4197 C.ar    1  UNL1        0.0645
     14 N          63.3649   81.1768   12.4248 N.ar    1  UNL1       -0.2183
     15 C          62.5611   80.5739   13.5387 C.ar    1  UNL1        0.2145
     16 N          62.2726   79.1019   13.5437 N.pl3   1  UNL1       -0.3274
     17 N          62.0461   81.4430   14.6474 N.ar    1  UNL1       -0.1995
     18 C          62.3347   82.9150   14.6423 C.ar    1  UNL1        0.1293
     19 N          61.8196   83.7841   15.7511 N.pl3   1  UNL1       -0.3425
     20 C          63.1384   83.5178   13.5285 C.ar    1  UNL1        0.0449
     21 H          62.6106   78.5315   12.8160 H       1  UNL1        0.1452
     22 H          61.7451   78.7062   14.2748 H       1  UNL1        0.1452
     23 H          61.2921   83.3884   16.4821 H       1  UNL1        0.1437
     24 H          62.0090   84.7502   15.7477 H       1  UNL1        0.1437
     25 C          63.9119   83.2628    9.9085 C.3     1  UNL1        0.0067
     26 C          64.4571   83.2516   11.3058 C.3     1  UNL1        0.0460
     27 C          63.6587   91.4581   11.4797 C.3     1  UNL1        0.4387
     28 F          63.4539   92.6662   10.6144 F       1  UNL1       -0.1661
     29 F          62.2080   91.4847   11.8601 F       1  UNL1       -0.1661
     30 F          64.6902   91.5463   11.1275 F       1  UNL1       -0.1661
     31 C          62.1388   87.5231   10.0343 C.3     1  UNL1        0.1196
     32 C          60.6416   87.4315   10.0408 C.3     1  UNL1        0.1113
     33 N          59.8820   87.6550   11.3148 N.am    1  UNL1       -0.3026
     34 C          59.3911   89.0287   11.6641 C.2     1  UNL1        0.2230
     35 C          58.6315   89.2522   12.9381 C.3     1  UNL1        0.0946
     36 O          59.6598   90.1788   10.7394 O.2     1  UNL1       -0.2751
     37 H          59.7056   86.9001   11.9217 H       1  UNL1        0.1495
@<TRIPOS>BOND
     1    25    26    1
     2    26    13    1
     3    13    14   ar
     4    14    15   ar
     5    15    16    1
     6    15    17   ar
     7    17    18   ar
     8    18    19    1
     9    18    20   ar
    10    20     1    1
    11     1     2   ar
    12     2     3   ar
    13     3     4   ar
    14     4     5   ar
    15     5     6   ar
    16     5     7    1
    17     7    31    1
    18    31    32    1
    19    32    33    1
    20    33    34   am
    21    34    35    1
    22    34    36    2
    23     7     8   am
    24     8     9    2
    25     8    10    1
    26    10    11    1
    27    10    27    1
    28    27    28    1
    29    27    29    1
    30    27    30    1
    31    10    12    1
    32    20    13   ar
    33     6     1   ar
    34    12     4    1
    35    16    21    1
    36    16    22    1
    37    19    23    1
    38    19    24    1
    39    33    37    1
@<TRIPOS>MOLECULE
*****
 37 39 0 0 0
SMALL
GASTEIGER

@<TRIPOS>ATOM
      1 C          62.8661   89.0269   12.0556 C.ar    1  UNL1        0.0053
      2 C          63.1631   88.3310   13.3508 C.ar    1  UNL1        0.0033
      3 C          64.1293   88.9384   14.3241 C.ar    1  UNL1        0.0382
      4 C          64.7986   90.2416   14.0022 C.ar    1  UNL1        0.1528
      5 C          64.5017   90.9375   12.7070 C.ar    1  UNL1        0.0882
      6 C          63.5354   90.3301   11.7337 C.ar    1  UNL1        0.0181
      7 N          65.1710   92.2407   12.3852 N.am    1  UNL1       -0.2512
      8 C          66.1373   92.8481   13.3585 C.2     1  UNL1        0.2742
      9 O          66.5567   93.7956   13.0092 O.2     1  UNL1       -0.2705
     10 C          66.4342   92.1523   14.6538 C.3     1  UNL1        0.2867
     11 C          67.0362   91.8756   15.9995 C.3     1  UNL1        0.0623
     12 O          65.7649   90.8490   14.9756 O.3     1  UNL1       -0.4641
     13 C          60.7941   89.2523   10.5045 C.ar    1  UNL1        0.0645
     14 N          59.8278   88.6450    9.5311 N.ar    1  UNL1       -0.2183
     15 C          59.9673   87.2049    9.1354 C.ar    1  UNL1        0.2145
     16 N          59.0010   86.5976    8.1620 N.pl3   1  UNL1       -0.3274
     17 N          61.0730   86.3721    9.7131 N.ar    1  UNL1       -0.1995
     18 C          62.0393   86.9794   10.6865 C.ar    1  UNL1        0.1293
     19 N          63.1451   86.1466   11.2641 N.pl3   1  UNL1       -0.3425
     20 C          61.8998   88.4195   11.0822 C.ar    1  UNL1        0.0449
     21 H          58.2752   87.1442    7.7829 H       1  UNL1        0.1452
     22 H          59.0925   85.6524    7.9023 H       1  UNL1        0.1452
     23 H          63.2367   85.2014   11.0044 H       1  UNL1        0.1437
     24 H          63.7793   86.5452   11.9030 H       1  UNL1        0.1437
     25 C          59.3549   91.1952   11.4554 C.3     1  UNL1        0.0067
     26 C          60.6546   90.6925   10.9002 C.3     1  UNL1        0.0460
     27 C          67.3126   93.3594   14.7993 C.3     1  UNL1        0.4387
     28 F          68.1910   94.5666   14.9448 F       1  UNL1       -0.1661
     29 F          68.5001   92.5463   14.3767 F       1  UNL1       -0.1661
     30 F          66.5314   94.0551   15.1179 F       1  UNL1       -0.1661
     31 C          64.8741   92.9366   11.0900 C.3     1  UNL1        0.1196
     32 C          65.8624   93.9086   10.5170 C.3     1  UNL1        0.1113
     33 N          66.7296   93.5034    9.3620 N.am    1  UNL1       -0.3026
     34 C          67.9458   92.6577    9.5978 C.2     1  UNL1        0.2230
     35 C          68.8130   92.2525    8.4429 C.3     1  UNL1        0.0946
     36 O          68.2949   92.2172   10.9886 O.2     1  UNL1       -0.2751
     37 H          66.5005   93.7926    8.4493 H       1  UNL1        0.1495
@<TRIPOS>BOND
     1    25    26    1
     2    26    13    1
     3    13    14   ar
     4    14    15   ar
     5    15    16    1
     6    15    17   ar
     7    17    18   ar
     8    18    19    1
     9    18    20   ar
    10    20     1    1
    11     1     2   ar
    12     2     3   ar
    13     3     4   ar
    14     4     5   ar
    15     5     6   ar
    16     5     7    1
    17     7    31    1
    18    31    32    1
    19    32    33    1
    20    33    34   am
    21    34    35    1
    22    34    36    2
    23     7     8   am
    24     8     9    2
    25     8    10    1
    26    10    11    1
    27    10    27    1
    28    27    28    1
    29    27    29    1
    30    27    30    1
    31    10    12    1
    32    20    13   ar
    33     6     1   ar
    34    12     4    1
    35    16    21    1
    36    16    22    1
    37    19    23    1
    38    19    24    1
    39    33    37    1
