@<TRIPOS>MOLECULE
*****
 34 38 0 0 0
SMALL
GASTEIGER

@<TRIPOS>ATOM
      1 C          62.1526   88.6691   11.5778 C.3     1  UNL1        0.1096
      2 C          61.3270   89.3178   10.5065 C.3     1  UNL1        0.1622
      3 O          60.6768   88.4767    9.4483 O.3     1  UNL1       -0.3502
      4 C          60.8522   86.9871    9.4613 C.3     1  UNL1        0.1637
      5 C          61.6778   86.3385   10.5325 C.3     1  UNL1        0.1257
      6 N          62.3281   87.1795   11.5908 N.am    1  UNL1       -0.2723
      7 C          63.1537   86.5309   12.6620 C.2     1  UNL1        0.2506
      8 O          63.8039   87.3719   13.7203 O.2     1  UNL1       -0.2699
      9 C          63.3291   85.0412   12.6751 C.ar    1  UNL1        0.0726
     10 C          63.5783   84.3041   11.3927 C.ar    1  UNL1        0.0018
     11 C          63.7537   82.8145   11.4057 C.ar    1  UNL1       -0.0216
     12 C          64.0030   82.0774   10.1232 C.3     1  UNL1        0.0310
     13 C          63.6799   82.0619   12.7011 C.ar    1  UNL1       -0.0026
     14 C          63.4307   82.7990   13.9835 C.ar    1  UNL1        0.0207
     15 C          63.2553   84.2887   13.9705 C.ar    1  UNL1        0.1072
     16 N          63.0061   85.0257   15.2530 N.ar    1  UNL1       -0.1477
     17 N          61.6708   85.2382   15.9026 N.ar    1  UNL1       -0.1447
     18 C          61.8878   86.0235   17.1621 C.ar    1  UNL1        0.1446
     19 C          63.3572   86.2964   17.2908 C.ar    1  UNL1        0.1446
     20 N          64.0483   85.6797   16.1109 N.ar    1  UNL1       -0.1447
     21 C          62.8029   89.5102   12.6360 C.3     1  UNL1        0.0487
     22 C          65.7170   92.7353   11.4715 C.ar    1  UNL1        0.1417
     23 C          64.6449   92.3112   10.5120 C.ar    1  UNL1        0.0367
     24 C          63.6735   91.2361   10.9002 C.ar    1  UNL1       -0.0011
     25 C          63.7742   90.5852   12.2478 C.ar    1  UNL1       -0.0201
     26 C          64.8464   91.0094   13.2073 C.ar    1  UNL1        0.0020
     27 C          65.8178   92.0844   12.8191 C.ar    1  UNL1        0.0727
     28 C          66.8899   92.5085   13.7787 C.ar    1  UNL1        0.2066
     29 N          66.6836   93.2905   15.0419 N.ar    1  UNL1       -0.1828
     30 C          68.0228   93.4904   15.6873 C.ar    1  UNL1        0.3164
     31 O          69.0569   92.8319   14.8229 O.2     1  UNL1       -0.3274
     32 N          68.3567   92.2251   13.6433 N.ar    1  UNL1       -0.0553
     33 C          66.2944   95.2533   11.1953 C.3     1  UNL1        0.2525
     34 O          66.6884   93.8104   11.0833 O.3     1  UNL1       -0.4713
@<TRIPOS>BOND
     1    33    34    1
     2    34    22    1
     3    22    23   ar
     4    23    24   ar
     5    24    25   ar
     6    25    21    1
     7     1    21    1
     8     1     2    1
     9     2     3    1
    10     3     4    1
    11     4     5    1
    12     5     6    1
    13     6     7   am
    14     7     8    2
    15     7     9    1
    16     9    10   ar
    17    10    11   ar
    18    11    12    1
    19    11    13   ar
    20    13    14   ar
    21    14    15   ar
    22    15    16    1
    23    16    17   ar
    24    17    18   ar
    25    18    19   ar
    26    19    20   ar
    27    25    26   ar
    28    26    27   ar
    29    27    28    1
    30    28    29   ar
    31    29    30   ar
    32    30    31   ar
    33    31    32   ar
    34    27    22   ar
    35    32    28   ar
    36     6     1    1
    37    15     9   ar
    38    20    16   ar
@<TRIPOS>MOLECULE
*****
 34 38 0 0 0
SMALL
GASTEIGER

@<TRIPOS>ATOM
      1 C          61.7341   89.7152   12.0095 C.3     1  UNL1        0.1096
      2 C          60.8980   90.8283   11.4509 C.3     1  UNL1        0.1622
      3 O          60.2180   90.6624   10.1243 O.3     1  UNL1       -0.3502
      4 C          60.3741   89.3835    9.3561 C.3     1  UNL1        0.1637
      5 C          61.2102   88.2704    9.9147 C.3     1  UNL1        0.1257
      6 N          61.8902   88.4363   11.2414 N.am    1  UNL1       -0.2723
      7 C          62.7263   87.3232   11.8000 C.2     1  UNL1        0.2506
      8 O          63.4063   87.4891   13.1266 O.2     1  UNL1       -0.2699
      9 C          62.8824   86.0443   11.0318 C.ar    1  UNL1        0.0726
     10 C          62.7649   86.0484    9.5365 C.ar    1  UNL1        0.0018
     11 C          62.9211   84.7695    8.7684 C.ar    1  UNL1       -0.0216
     12 C          62.8036   84.7737    7.2729 C.3     1  UNL1        0.0310
     13 C          63.1946   83.4865    9.4956 C.ar    1  UNL1       -0.0026
     14 C          63.3121   83.4823   10.9910 C.ar    1  UNL1        0.0207
     15 C          63.1560   84.7613   11.7591 C.ar    1  UNL1        0.1072
     16 N          63.2734   84.7571   13.2545 N.ar    1  UNL1       -0.1477
     17 N          62.1338   84.7009   14.2283 N.ar    1  UNL1       -0.1447
     18 C          62.7071   84.7175   15.6143 C.ar    1  UNL1        0.1446
     19 C          64.2011   84.7838   15.4971 C.ar    1  UNL1        0.1446
     20 N          64.5511   84.8083   14.0387 N.ar    1  UNL1       -0.1447
     21 C          62.4141   89.8810   13.3362 C.3     1  UNL1        0.0487
     22 C          66.3880   91.9782   13.5812 C.ar    1  UNL1        0.1417
     23 C          65.9053   91.1489   14.7341 C.ar    1  UNL1        0.0367
     24 C          64.5806   90.4499   14.6524 C.ar    1  UNL1       -0.0011
     25 C          63.7387   90.5801   13.4179 C.ar    1  UNL1       -0.0201
     26 C          64.2215   91.4093   12.2650 C.ar    1  UNL1        0.0020
     27 C          65.5461   92.1084   12.3466 C.ar    1  UNL1        0.0727
     28 C          66.0288   92.9377   11.1936 C.ar    1  UNL1        0.2066
     29 N          67.1240   92.5666   10.2381 N.ar    1  UNL1       -0.1828
     30 C          67.2731   93.6832    9.2477 C.ar    1  UNL1        0.3164
     31 O          66.2701   94.7444    9.5911 O.2     1  UNL1       -0.3274
     32 N          65.5011   94.2837   10.7937 N.ar    1  UNL1       -0.0553
     33 C          68.4684   92.7031   14.9582 C.3     1  UNL1        0.2525
     34 O          67.7126   92.6772   13.6628 O.3     1  UNL1       -0.4713
@<TRIPOS>BOND
     1    33    34    1
     2    34    22    1
     3    22    23   ar
     4    23    24   ar
     5    24    25   ar
     6    25    21    1
     7     1    21    1
     8     1     2    1
     9     2     3    1
    10     3     4    1
    11     4     5    1
    12     5     6    1
    13     6     7   am
    14     7     8    2
    15     7     9    1
    16     9    10   ar
    17    10    11   ar
    18    11    12    1
    19    11    13   ar
    20    13    14   ar
    21    14    15   ar
    22    15    16    1
    23    16    17   ar
    24    17    18   ar
    25    18    19   ar
    26    19    20   ar
    27    25    26   ar
    28    26    27   ar
    29    27    28    1
    30    28    29   ar
    31    29    30   ar
    32    30    31   ar
    33    31    32   ar
    34    27    22   ar
    35    32    28   ar
    36     6     1    1
    37    15     9   ar
    38    20    16   ar
@<TRIPOS>MOLECULE
*****
 34 38 0 0 0
SMALL
GASTEIGER

@<TRIPOS>ATOM
      1 C          61.4341   89.6170   11.9446 C.3     1  UNL1        0.1096
      2 C          60.3086   90.5192   11.5329 C.3     1  UNL1        0.1622
      3 O          59.3423   90.0777   10.4740 O.3     1  UNL1       -0.3502
      4 C          59.5015   88.7339    9.8267 C.3     1  UNL1        0.1637
      5 C          60.6269   87.8317   10.2383 C.3     1  UNL1        0.1257
      6 N          61.5933   88.2733   11.2973 N.am    1  UNL1       -0.2723
      7 C          62.7187   87.3711   11.7088 C.2     1  UNL1        0.2506
      8 O          63.6849   87.8127   12.7677 O.2     1  UNL1       -0.2699
      9 C          62.8778   86.0274   11.0615 C.ar    1  UNL1        0.0726
     10 C          62.7901   85.8984    9.5697 C.ar    1  UNL1        0.0018
     11 C          62.9492   84.5547    8.9224 C.ar    1  UNL1       -0.0216
     12 C          62.8615   84.4257    7.4305 C.3     1  UNL1        0.0310
     13 C          63.1962   83.3399    9.7669 C.ar    1  UNL1       -0.0026
     14 C          63.2839   83.4688   11.2587 C.ar    1  UNL1        0.0207
     15 C          63.1248   84.8126   11.9061 C.ar    1  UNL1        0.1072
     16 N          63.2125   84.9415   13.3980 N.ar    1  UNL1       -0.1477
     17 N          62.0794   84.7704   14.3659 N.ar    1  UNL1       -0.1447
     18 C          62.6153   84.9873   15.7500 C.ar    1  UNL1        0.1446
     19 C          64.0797   85.2924   15.6375 C.ar    1  UNL1        0.1446
     20 N          64.4488   85.2641   14.1839 N.ar    1  UNL1       -0.1447
     21 C          62.4004   90.0586   13.0035 C.3     1  UNL1        0.0487
     22 C          65.9319   92.6200   11.9000 C.ar    1  UNL1        0.1417
     23 C          64.9131   92.2590   10.8600 C.ar    1  UNL1        0.0367
     24 C          63.7359   91.4052   11.2278 C.ar    1  UNL1       -0.0011
     25 C          63.5775   90.9124   12.6357 C.ar    1  UNL1       -0.0201
     26 C          64.5964   91.2734   13.6757 C.ar    1  UNL1        0.0020
     27 C          65.7735   92.1272   13.3079 C.ar    1  UNL1        0.0727
     28 C          66.7924   92.4882   14.3480 C.ar    1  UNL1        0.2066
     29 N          67.6534   91.5252   15.1103 N.ar    1  UNL1       -0.1828
     30 C          68.5222   92.3174   16.0418 C.ar    1  UNL1        0.3164
     31 O          68.1981   93.7700   15.8551 O.2     1  UNL1       -0.3274
     32 N          67.1290   93.8756   14.8083 N.ar    1  UNL1       -0.0553
     33 C          67.2215   94.0400   10.1478 C.3     1  UNL1        0.2525
     34 O          67.1090   93.4738   11.5322 O.3     1  UNL1       -0.4713
@<TRIPOS>BOND
     1    33    34    1
     2    34    22    1
     3    22    23   ar
     4    23    24   ar
     5    24    25   ar
     6    25    21    1
     7     1    21    1
     8     1     2    1
     9     2     3    1
    10     3     4    1
    11     4     5    1
    12     5     6    1
    13     6     7   am
    14     7     8    2
    15     7     9    1
    16     9    10   ar
    17    10    11   ar
    18    11    12    1
    19    11    13   ar
    20    13    14   ar
    21    14    15   ar
    22    15    16    1
    23    16    17   ar
    24    17    18   ar
    25    18    19   ar
    26    19    20   ar
    27    25    26   ar
    28    26    27   ar
    29    27    28    1
    30    28    29   ar
    31    29    30   ar
    32    30    31   ar
    33    31    32   ar
    34    27    22   ar
    35    32    28   ar
    36     6     1    1
    37    15     9   ar
    38    20    16   ar
@<TRIPOS>MOLECULE
*****
 34 38 0 0 0
SMALL
GASTEIGER

@<TRIPOS>ATOM
      1 C          62.4839   89.1590   11.9672 C.3     1  UNL1        0.1096
      2 C          61.9410   89.9518   10.8153 C.3     1  UNL1        0.1622
      3 O          61.5685   89.2597    9.5378 O.3     1  UNL1       -0.3502
      4 C          61.7390   87.7748    9.4119 C.3     1  UNL1        0.1637
      5 C          62.2819   86.9819   10.5637 C.3     1  UNL1        0.1257
      6 N          62.6544   87.6740   11.8414 N.am    1  UNL1       -0.2723
      7 C          63.1973   86.8811   12.9931 C.2     1  UNL1        0.2506
      8 O          63.5697   87.5732   14.2707 O.2     1  UNL1       -0.2699
      9 C          63.3678   85.3962   12.8673 C.ar    1  UNL1        0.0726
     10 C          63.6270   84.7822   11.5235 C.ar    1  UNL1        0.0018
     11 C          63.7974   83.2972   11.3977 C.ar    1  UNL1       -0.0216
     12 C          64.0566   82.6833   10.0538 C.3     1  UNL1        0.0310
     13 C          63.7087   82.4263   12.6156 C.ar    1  UNL1       -0.0026
     14 C          63.4495   83.0402   13.9594 C.ar    1  UNL1        0.0207
     15 C          63.2790   84.5252   14.0852 C.ar    1  UNL1        0.1072
     16 N          63.0198   85.1392   15.4291 N.ar    1  UNL1       -0.1477
     17 N          61.6799   85.2884   16.0866 N.ar    1  UNL1       -0.1447
     18 C          61.8869   85.9531   17.4152 C.ar    1  UNL1        0.1446
     19 C          63.3549   86.2147   17.5789 C.ar    1  UNL1        0.1446
     20 N          64.0550   85.7117   16.3514 N.ar    1  UNL1       -0.1447
     21 C          62.8564   89.8511   13.2448 C.3     1  UNL1        0.0487
     22 C          66.7443   92.0981   13.5358 C.ar    1  UNL1        0.1417
     23 C          66.3123   91.1986   14.6557 C.ar    1  UNL1        0.0367
     24 C          65.0163   90.4496   14.5587 C.ar    1  UNL1       -0.0011
     25 C          64.1523   90.6001   13.3418 C.ar    1  UNL1       -0.0201
     26 C          64.5844   91.4995   12.2219 C.ar    1  UNL1        0.0020
     27 C          65.8804   92.2485   12.3189 C.ar    1  UNL1        0.0727
     28 C          66.3124   93.1480   11.1989 C.ar    1  UNL1        0.2066
     29 N          67.4957   92.9336   10.3023 N.ar    1  UNL1       -0.1828
     30 C          67.5516   94.0729    9.3282 C.ar    1  UNL1        0.3164
     31 O          66.4028   94.9915    9.6228 O.2     1  UNL1       -0.3274
     32 N          65.6370   94.4198   10.7789 N.ar    1  UNL1       -0.0553
     33 C          68.8624   92.7644   14.8847 C.3     1  UNL1        0.2525
     34 O          68.0403   92.8471   13.6328 O.3     1  UNL1       -0.4713
@<TRIPOS>BOND
     1    33    34    1
     2    34    22    1
     3    22    23   ar
     4    23    24   ar
     5    24    25   ar
     6    25    21    1
     7     1    21    1
     8     1     2    1
     9     2     3    1
    10     3     4    1
    11     4     5    1
    12     5     6    1
    13     6     7   am
    14     7     8    2
    15     7     9    1
    16     9    10   ar
    17    10    11   ar
    18    11    12    1
    19    11    13   ar
    20    13    14   ar
    21    14    15   ar
    22    15    16    1
    23    16    17   ar
    24    17    18   ar
    25    18    19   ar
    26    19    20   ar
    27    25    26   ar
    28    26    27   ar
    29    27    28    1
    30    28    29   ar
    31    29    30   ar
    32    30    31   ar
    33    31    32   ar
    34    27    22   ar
    35    32    28   ar
    36     6     1    1
    37    15     9   ar
    38    20    16   ar
@<TRIPOS>MOLECULE
*****
 34 38 0 0 0
SMALL
GASTEIGER

@<TRIPOS>ATOM
      1 C          63.8832   88.3444   13.8471 C.3     1  UNL1        0.1096
      2 C          64.5628   87.5716   14.9385 C.3     1  UNL1        0.1622
      3 O          64.6285   86.0747   14.8684 O.3     1  UNL1       -0.3502
      4 C          64.0146   85.3506   13.7070 C.3     1  UNL1        0.1637
      5 C          63.3350   86.1234   12.6157 C.3     1  UNL1        0.1257
      6 N          63.2693   87.6203   12.6858 N.am    1  UNL1       -0.2723
      7 C          62.5897   88.3931   11.5945 C.2     1  UNL1        0.2506
      8 O          62.5241   89.8900   11.6646 O.2     1  UNL1       -0.2699
      9 C          61.9758   87.6690   10.4331 C.ar    1  UNL1        0.0726
     10 C          62.7846   86.6703    9.6596 C.ar    1  UNL1        0.0018
     11 C          62.1707   85.9462    8.4982 C.ar    1  UNL1       -0.0216
     12 C          62.9796   84.9475    7.7246 C.3     1  UNL1        0.0310
     13 C          60.7480   86.2208    8.1104 C.ar    1  UNL1       -0.0026
     14 C          59.9392   87.2194    8.8839 C.ar    1  UNL1        0.0207
     15 C          60.5531   87.9436   10.0453 C.ar    1  UNL1        0.1072
     16 N          59.7442   88.9423   10.8189 N.ar    1  UNL1       -0.1477
     17 N          59.5634   90.3900   10.4704 N.ar    1  UNL1       -0.1447
     18 C          58.6816   91.0111   11.5128 C.ar    1  UNL1        0.1446
     19 C          58.3174   89.9472   12.5056 C.ar    1  UNL1        0.1446
     20 N          58.9742   88.6686   12.0767 N.ar    1  UNL1       -0.1447
     21 C          63.8175   89.8413   13.9172 C.3     1  UNL1        0.0487
     22 C          67.6114   92.2530   14.1188 C.ar    1  UNL1        0.1417
     23 C          67.1019   91.5528   15.3435 C.ar    1  UNL1        0.0367
     24 C          65.8372   90.7489   15.2763 C.ar    1  UNL1       -0.0011
     25 C          65.0822   90.6452   13.9844 C.ar    1  UNL1       -0.0201
     26 C          65.5917   91.3455   12.7597 C.ar    1  UNL1        0.0020
     27 C          66.8563   92.1494   12.8269 C.ar    1  UNL1        0.0727
     28 C          67.3658   92.8497   11.6020 C.ar    1  UNL1        0.2066
     29 N          66.8964   94.1777   11.0863 N.ar    1  UNL1       -0.1828
     30 C          67.6746   94.4936    9.8435 C.ar    1  UNL1        0.3164
     31 O          68.6250   93.3608    9.5911 O.2     1  UNL1       -0.3274
     32 N          68.4341   92.3448   10.6780 N.ar    1  UNL1       -0.0553
     33 C          69.3938   93.5310   15.5114 C.3     1  UNL1        0.2525
     34 O          68.8760   93.0569   14.1859 O.3     1  UNL1       -0.4713
@<TRIPOS>BOND
     1    33    34    1
     2    34    22    1
     3    22    23   ar
     4    23    24   ar
     5    24    25   ar
     6    25    21    1
     7     1    21    1
     8     1     2    1
     9     2     3    1
    10     3     4    1
    11     4     5    1
    12     5     6    1
    13     6     7   am
    14     7     8    2
    15     7     9    1
    16     9    10   ar
    17    10    11   ar
    18    11    12    1
    19    11    13   ar
    20    13    14   ar
    21    14    15   ar
    22    15    16    1
    23    16    17   ar
    24    17    18   ar
    25    18    19   ar
    26    19    20   ar
    27    25    26   ar
    28    26    27   ar
    29    27    28    1
    30    28    29   ar
    31    29    30   ar
    32    30    31   ar
    33    31    32   ar
    34    27    22   ar
    35    32    28   ar
    36     6     1    1
    37    15     9   ar
    38    20    16   ar
@<TRIPOS>MOLECULE
*****
 34 38 0 0 0
SMALL
GASTEIGER

@<TRIPOS>ATOM
      1 C          63.2880   88.9002   15.3814 C.3     1  UNL1        0.1096
      2 C          63.2241   89.1413   16.8606 C.3     1  UNL1        0.1622
      3 O          63.1413   87.9804   17.8068 O.3     1  UNL1       -0.3502
      4 C          63.1225   86.5783   17.2739 C.3     1  UNL1        0.1637
      5 C          63.1864   86.3372   15.7948 C.3     1  UNL1        0.1257
      6 N          63.2692   87.4982   14.8485 N.am    1  UNL1       -0.2723
      7 C          63.3331   87.2571   13.3694 C.2     1  UNL1        0.2506
      8 O          63.4159   88.4180   12.4232 O.2     1  UNL1       -0.2699
      9 C          63.3143   85.8550   12.8366 C.ar    1  UNL1        0.0726
     10 C          64.0826   84.7753   13.5392 C.ar    1  UNL1        0.0018
     11 C          64.0638   83.3732   13.0063 C.ar    1  UNL1       -0.0216
     12 C          64.8321   82.2934   13.7091 C.3     1  UNL1        0.0310
     13 C          63.2766   83.0510   11.7708 C.ar    1  UNL1       -0.0026
     14 C          62.5084   84.1308   11.0682 C.ar    1  UNL1        0.0207
     15 C          62.5272   85.5328   11.6011 C.ar    1  UNL1        0.1072
     16 N          61.7588   86.6126   10.8983 N.ar    1  UNL1       -0.1477
     17 N          60.5367   87.3079   11.4209 N.ar    1  UNL1       -0.1447
     18 C          60.1003   88.3117   10.3953 C.ar    1  UNL1        0.1446
     19 C          61.0527   88.2368    9.2388 C.ar    1  UNL1        0.1446
     20 N          62.0777   87.1867    9.5497 N.ar    1  UNL1       -0.1447
     21 C          63.3708   90.0611   14.4352 C.3     1  UNL1        0.0487
     22 C          66.9095   92.8370   14.5837 C.ar    1  UNL1        0.1417
     23 C          66.1854   92.4767   15.8469 C.ar    1  UNL1        0.0367
     24 C          65.0058   91.5514   15.7974 C.ar    1  UNL1       -0.0011
     25 C          64.5503   90.9864   14.4847 C.ar    1  UNL1       -0.0201
     26 C          65.2744   91.3468   13.2215 C.ar    1  UNL1        0.0020
     27 C          66.4540   92.2721   13.2709 C.ar    1  UNL1        0.0727
     28 C          67.1780   92.6324   12.0076 C.ar    1  UNL1        0.2066
     29 N          66.7789   93.7050   11.0379 N.ar    1  UNL1       -0.1828
     30 C          67.7826   93.7189    9.9232 C.ar    1  UNL1        0.3164
     31 O          68.8020   92.6549   10.2040 O.2     1  UNL1       -0.3274
     32 N          68.4284   91.9835   11.4922 N.ar    1  UNL1       -0.0553
     33 C          69.0735   93.6628   15.7604 C.3     1  UNL1        0.2525
     34 O          68.0890   93.7623   14.6332 O.3     1  UNL1       -0.4713
@<TRIPOS>BOND
     1    33    34    1
     2    34    22    1
     3    22    23   ar
     4    23    24   ar
     5    24    25   ar
     6    25    21    1
     7     1    21    1
     8     1     2    1
     9     2     3    1
    10     3     4    1
    11     4     5    1
    12     5     6    1
    13     6     7   am
    14     7     8    2
    15     7     9    1
    16     9    10   ar
    17    10    11   ar
    18    11    12    1
    19    11    13   ar
    20    13    14   ar
    21    14    15   ar
    22    15    16    1
    23    16    17   ar
    24    17    18   ar
    25    18    19   ar
    26    19    20   ar
    27    25    26   ar
    28    26    27   ar
    29    27    28    1
    30    28    29   ar
    31    29    30   ar
    32    30    31   ar
    33    31    32   ar
    34    27    22   ar
    35    32    28   ar
    36     6     1    1
    37    15     9   ar
    38    20    16   ar
@<TRIPOS>MOLECULE
*****
 34 38 0 0 0
SMALL
GASTEIGER

@<TRIPOS>ATOM
      1 C          61.0466   90.1464   10.9743 C.3     1  UNL1        0.1096
      2 C          59.7921   90.9193   11.2553 C.3     1  UNL1        0.1622
      3 O          58.6658   90.2736   12.0065 O.3     1  UNL1       -0.3502
      4 C          58.7939   88.8550   12.4767 C.3     1  UNL1        0.1637
      5 C          60.0483   88.0821   12.1958 C.3     1  UNL1        0.1257
      6 N          61.1747   88.7278   11.4445 N.am    1  UNL1       -0.2723
      7 C          62.4292   87.9550   11.1636 C.2     1  UNL1        0.2506
      8 O          63.5555   88.6007   10.4123 O.2     1  UNL1       -0.2699
      9 C          62.5573   86.5364   11.6338 C.ar    1  UNL1        0.0726
     10 C          63.1789   86.2413   12.9667 C.ar    1  UNL1        0.0018
     11 C          63.3071   84.8227   13.4369 C.ar    1  UNL1       -0.0216
     12 C          63.9287   84.5277   14.7698 C.3     1  UNL1        0.0310
     13 C          62.8135   83.6992   12.5744 C.ar    1  UNL1       -0.0026
     14 C          62.1919   83.9942   11.2416 C.ar    1  UNL1        0.0207
     15 C          62.0638   85.4128   10.7713 C.ar    1  UNL1        0.1072
     16 N          61.4421   85.7079    9.4384 N.ar    1  UNL1       -0.1477
     17 N          62.0139   85.3466    8.0995 N.ar    1  UNL1       -0.1447
     18 C          61.0647   85.8314    7.0440 C.ar    1  UNL1        0.1446
     19 C          59.9063   86.4923    7.7306 C.ar    1  UNL1        0.1446
     20 N          60.1396   86.4159    9.2104 N.ar    1  UNL1       -0.1447
     21 C          62.1730   90.7922   10.2230 C.3     1  UNL1        0.0487
     22 C          65.7205   92.4289   12.4561 C.ar    1  UNL1        0.1417
     23 C          64.6745   91.6390   13.1853 C.ar    1  UNL1        0.0367
     24 C          63.4920   91.0934   12.4410 C.ar    1  UNL1       -0.0011
     25 C          63.3555   91.3377   10.9674 C.ar    1  UNL1       -0.0201
     26 C          64.4015   92.1276   10.2381 C.ar    1  UNL1        0.0020
     27 C          65.5840   92.6732   10.9824 C.ar    1  UNL1        0.0727
     28 C          66.6300   93.4631   10.2531 C.ar    1  UNL1        0.2066
     29 N          66.4260   94.7904    9.5847 N.ar    1  UNL1       -0.1828
     30 C          67.7336   95.2120    8.9826 C.ar    1  UNL1        0.3164
     31 O          68.7457   94.1452    9.2788 O.2     1  UNL1       -0.3274
     32 N          68.0636   93.0644   10.0640 N.ar    1  UNL1       -0.0553
     33 C          66.7264   93.5383   14.5791 C.3     1  UNL1        0.2525
     34 O          66.9030   92.9745   13.2004 O.3     1  UNL1       -0.4713
@<TRIPOS>BOND
     1    33    34    1
     2    34    22    1
     3    22    23   ar
     4    23    24   ar
     5    24    25   ar
     6    25    21    1
     7     1    21    1
     8     1     2    1
     9     2     3    1
    10     3     4    1
    11     4     5    1
    12     5     6    1
    13     6     7   am
    14     7     8    2
    15     7     9    1
    16     9    10   ar
    17    10    11   ar
    18    11    12    1
    19    11    13   ar
    20    13    14   ar
    21    14    15   ar
    22    15    16    1
    23    16    17   ar
    24    17    18   ar
    25    18    19   ar
    26    19    20   ar
    27    25    26   ar
    28    26    27   ar
    29    27    28    1
    30    28    29   ar
    31    29    30   ar
    32    30    31   ar
    33    31    32   ar
    34    27    22   ar
    35    32    28   ar
    36     6     1    1
    37    15     9   ar
    38    20    16   ar
