@<TRIPOS>MOLECULE
*****
 37 40 0 0 0
SMALL
GASTEIGER

@<TRIPOS>ATOM
      1 N          66.2003   93.4156    9.8711 N.am    1  UNL1       -0.2837
      2 C          66.3136   93.5105   11.3638 C.2     1  UNL1        0.3046
      3 O          67.1860   94.5611   11.9843 O.2     1  UNL1       -0.2526
      4 N          65.5546   92.5548   12.2359 N.am    1  UNL1       -0.2543
      5 C          65.5689   92.5282   13.7356 C.3     1  UNL1        0.1409
      6 C          64.6712   91.4149   14.1880 C.ar    1  UNL1        0.0810
      7 N          64.2985   90.9179   15.5533 N.ar    1  UNL1       -0.2169
      8 C          63.3566   89.7595   15.6986 C.ar    1  UNL1        0.2134
      9 N          62.9839   89.2626   17.0639 N.pl3   1  UNL1       -0.3275
     10 N          62.7875   89.0981   14.4785 N.ar    1  UNL1       -0.2141
     11 C          63.1602   89.5951   13.1131 C.ar    1  UNL1        0.0867
     12 C          64.1021   90.7534   12.9679 C.ar    1  UNL1        0.0309
     13 C          64.6481   91.4580   11.7615 C.3     1  UNL1        0.1248
     14 H          65.6277   92.7260    9.4638 H       1  UNL1        0.1512
     15 H          63.3574   89.6967   17.8647 H       1  UNL1        0.1452
     16 H          62.3657   88.5024   17.1592 H       1  UNL1        0.1452
     17 C          62.5911   88.9337   11.8930 C.ar    1  UNL1        0.0621
     18 C          61.8301   89.7446   10.8863 C.ar    1  UNL1        0.0629
     19 CL         61.6382   91.2169   11.0998 Cl      1  UNL1       -0.0821
     20 C          61.2610   89.0832    9.6663 C.ar    1  UNL1        0.0230
     21 C          61.4529   87.6109    9.4528 C.ar    1  UNL1        0.0615
     22 CL         60.8837   86.9495    8.2327 Cl      1  UNL1       -0.0821
     23 C          62.2139   86.8000   10.4595 C.ar    1  UNL1        0.0484
     24 C          62.7830   87.4615   11.6796 C.ar    1  UNL1        0.1417
     25 O          63.5440   86.6505   12.6862 O.3     1  UNL1       -0.4732
     26 C          62.9646   85.3701   13.2103 C.3     1  UNL1        0.2316
     27 C          63.7183   84.0835   13.0468 C.3     1  UNL1        0.1746
     28 N          63.0340   82.7748   13.3093 N.ar    1  UNL1       -0.2455
     29 C          63.3196   81.4758   12.6157 C.ar    1  UNL1        0.0968
     30 C          62.4060   80.4335   13.1892 C.ar    1  UNL1        0.0427
     31 C          61.5558   81.0883   14.2373 C.ar    1  UNL1        0.1217
     32 N          61.9439   82.5353   14.3115 N.ar    1  UNL1       -0.1675
     33 C          66.9593   94.3713    8.9990 C.3     1  UNL1        0.1578
     34 C          65.6227   96.8557    7.9785 C.3     1  UNL1        0.0740
     35 C          66.2910   95.6135    8.4887 C.3     1  UNL1        0.2818
     36 F          66.4205   95.1058    7.0831 F       1  UNL1       -0.2025
     37 F          66.1615   96.1211    9.8942 F       1  UNL1       -0.2025
@<TRIPOS>BOND
     1    34    35    1
     2    35    36    1
     3    35    37    1
     4    35    33    1
     5    33     1    1
     6     1     2   am
     7     2     3    2
     8     2     4   am
     9     4     5    1
    10     5     6    1
    11     6     7   ar
    12     7     8   ar
    13     8     9    1
    14     8    10   ar
    15    10    11   ar
    16    11    17    1
    17    17    18   ar
    18    18    19    1
    19    18    20   ar
    20    20    21   ar
    21    21    22    1
    22    21    23   ar
    23    23    24   ar
    24    24    25    1
    25    25    26    1
    26    26    27    1
    27    27    28    1
    28    28    29   ar
    29    29    30   ar
    30    30    31   ar
    31    31    32   ar
    32    11    12   ar
    33    12    13    1
    34    13     4    1
    35    12     6   ar
    36    24    17   ar
    37    32    28   ar
    38     1    14    1
    39     9    15    1
    40     9    16    1
@<TRIPOS>MOLECULE
*****
 37 40 0 0 0
SMALL
GASTEIGER

@<TRIPOS>ATOM
      1 N          60.2758   87.9785   10.3004 N.am    1  UNL1       -0.2837
      2 C          61.1366   89.0983    9.7954 C.2     1  UNL1        0.3046
      3 O          60.9649   89.6026    8.3932 O.2     1  UNL1       -0.2526
      4 N          62.1691   89.7139   10.6926 N.am    1  UNL1       -0.2543
      5 C          63.0979   90.8343   10.3292 C.3     1  UNL1        0.1409
      6 C          63.9570   91.1300   11.5228 C.ar    1  UNL1        0.0810
      7 N          65.0501   92.1319   11.7492 N.ar    1  UNL1       -0.2169
      8 C          65.7454   92.1962   13.0768 C.ar    1  UNL1        0.2134
      9 N          66.8384   93.1980   13.3032 N.pl3   1  UNL1       -0.3275
     10 N          65.3475   91.2585   14.1780 N.ar    1  UNL1       -0.2141
     11 C          64.2544   90.2566   13.9515 C.ar    1  UNL1        0.0867
     12 C          63.5591   90.1923   12.6239 C.ar    1  UNL1        0.0309
     13 C          62.4542   89.3171   12.1109 C.3     1  UNL1        0.1248
     14 H          60.3885   87.6476   11.2207 H       1  UNL1        0.1512
     15 H          67.0996   93.8135   12.5805 H       1  UNL1        0.1452
     16 H          67.2948   93.2402   14.1746 H       1  UNL1        0.1452
     17 C          63.8565   89.3189   15.0526 C.ar    1  UNL1        0.0621
     18 C          63.4786   89.8609   16.3993 C.ar    1  UNL1        0.0629
     19 CL         63.4986   91.3405   16.6448 Cl      1  UNL1       -0.0821
     20 C          63.0808   88.9233   17.5005 C.ar    1  UNL1        0.0230
     21 C          63.0608   87.4436   17.2549 C.ar    1  UNL1        0.0615
     22 CL         62.6630   86.5059   18.3561 Cl      1  UNL1       -0.0821
     23 C          63.4387   86.9016   15.9083 C.ar    1  UNL1        0.0484
     24 C          63.8365   87.8393   14.8071 C.ar    1  UNL1        0.1417
     25 O          64.2144   87.2973   13.4604 O.3     1  UNL1       -0.4732
     26 C          63.6428   85.9928   12.9897 C.3     1  UNL1        0.2316
     27 C          64.2008   84.6996   13.5058 C.3     1  UNL1        0.1746
     28 N          63.3451   83.4678   13.5243 N.ar    1  UNL1       -0.2455
     29 C          63.1747   82.4956   12.3949 C.ar    1  UNL1        0.0968
     30 C          62.2338   81.4188   12.8481 C.ar    1  UNL1        0.0427
     31 C          61.8227   81.7257   14.2577 C.ar    1  UNL1        0.1217
     32 N          62.5095   82.9920   14.6756 N.ar    1  UNL1       -0.1675
     33 C          59.2433   87.3630    9.4032 C.3     1  UNL1        0.1578
     34 C          60.0883   85.5520    7.1657 C.3     1  UNL1        0.0740
     35 C          59.6658   86.4575    8.2844 C.3     1  UNL1        0.2818
     36 F          58.6395   87.0854    7.3886 F       1  UNL1       -0.2025
     37 F          60.6920   85.8296    9.1802 F       1  UNL1       -0.2025
@<TRIPOS>BOND
     1    34    35    1
     2    35    36    1
     3    35    37    1
     4    35    33    1
     5    33     1    1
     6     1     2   am
     7     2     3    2
     8     2     4   am
     9     4     5    1
    10     5     6    1
    11     6     7   ar
    12     7     8   ar
    13     8     9    1
    14     8    10   ar
    15    10    11   ar
    16    11    17    1
    17    17    18   ar
    18    18    19    1
    19    18    20   ar
    20    20    21   ar
    21    21    22    1
    22    21    23   ar
    23    23    24   ar
    24    24    25    1
    25    25    26    1
    26    26    27    1
    27    27    28    1
    28    28    29   ar
    29    29    30   ar
    30    30    31   ar
    31    31    32   ar
    32    11    12   ar
    33    12    13    1
    34    13     4    1
    35    12     6   ar
    36    24    17   ar
    37    32    28   ar
    38     1    14    1
    39     9    15    1
    40     9    16    1
@<TRIPOS>MOLECULE
*****
 37 40 0 0 0
SMALL
GASTEIGER

@<TRIPOS>ATOM
      1 N          64.5530   91.9829   11.6352 N.am    1  UNL1       -0.2837
      2 C          64.8849   91.2505   12.9014 C.2     1  UNL1        0.3046
      3 O          65.7214   91.9146   13.9547 O.2     1  UNL1       -0.2526
      4 N          64.3805   89.8540   13.1145 N.am    1  UNL1       -0.2543
      5 C          64.6297   89.0013   14.3230 C.3     1  UNL1        0.1409
      6 C          63.9414   87.6853   14.1118 C.ar    1  UNL1        0.0810
      7 N          63.8419   86.4562   14.9659 N.ar    1  UNL1       -0.2169
      8 C          63.0677   85.2665   14.4808 C.ar    1  UNL1        0.2134
      9 N          62.9681   84.0375   15.3348 N.pl3   1  UNL1       -0.3275
     10 N          62.3931   85.3060   13.1416 N.ar    1  UNL1       -0.2141
     11 C          62.4927   86.5351   12.2875 C.ar    1  UNL1        0.0867
     12 C          63.2668   87.7247   12.7727 C.ar    1  UNL1        0.0309
     13 C          63.5382   89.0651   12.1563 C.3     1  UNL1        0.1248
     14 H          64.0040   91.5470   10.9439 H       1  UNL1        0.1512
     15 H          63.4109   84.0116   16.2137 H       1  UNL1        0.1452
     16 H          62.4600   83.2566   15.0164 H       1  UNL1        0.1452
     17 C          61.8181   86.5746   10.9484 C.ar    1  UNL1        0.0621
     18 C          60.5693   87.3843   10.7612 C.ar    1  UNL1        0.0629
     19 CL         59.9952   88.1545   11.9132 Cl      1  UNL1       -0.0821
     20 C          59.8947   87.4237    9.4221 C.ar    1  UNL1        0.0230
     21 C          60.4689   86.6534    8.2701 C.ar    1  UNL1        0.0615
     22 CL         59.7943   86.6929    6.9309 Cl      1  UNL1       -0.0821
     23 C          61.7176   85.8438    8.4572 C.ar    1  UNL1        0.0484
     24 C          62.3922   85.8043    9.7964 C.ar    1  UNL1        0.1417
     25 O          63.6410   84.9946    9.9836 O.3     1  UNL1       -0.4732
     26 C          63.5496   83.5114   10.1876 C.3     1  UNL1        0.2316
     27 C          64.3474   82.8532   11.2739 C.3     1  UNL1        0.1746
     28 N          63.6929   81.8616   12.1895 N.ar    1  UNL1       -0.2455
     29 C          62.7469   80.7725   11.7783 C.ar    1  UNL1        0.0968
     30 C          62.3387   80.0229   13.0117 C.ar    1  UNL1        0.0427
     31 C          63.0324   80.6486   14.1853 C.ar    1  UNL1        0.1217
     32 N          63.8693   81.7850   13.6771 N.ar    1  UNL1       -0.1675
     33 C          65.0574   93.3793   11.4222 C.3     1  UNL1        0.1578
     34 C          67.3886   93.8703    9.5989 C.3     1  UNL1        0.0740
     35 C          66.2231   93.6248   10.5105 C.3     1  UNL1        0.2818
     36 F          66.3394   92.1500   10.2622 F       1  UNL1       -0.2025
     37 F          66.1068   95.0995   10.7589 F       1  UNL1       -0.2025
@<TRIPOS>BOND
     1    34    35    1
     2    35    36    1
     3    35    37    1
     4    35    33    1
     5    33     1    1
     6     1     2   am
     7     2     3    2
     8     2     4   am
     9     4     5    1
    10     5     6    1
    11     6     7   ar
    12     7     8   ar
    13     8     9    1
    14     8    10   ar
    15    10    11   ar
    16    11    17    1
    17    17    18   ar
    18    18    19    1
    19    18    20   ar
    20    20    21   ar
    21    21    22    1
    22    21    23   ar
    23    23    24   ar
    24    24    25    1
    25    25    26    1
    26    26    27    1
    27    27    28    1
    28    28    29   ar
    29    29    30   ar
    30    30    31   ar
    31    31    32   ar
    32    11    12   ar
    33    12    13    1
    34    13     4    1
    35    12     6   ar
    36    24    17   ar
    37    32    28   ar
    38     1    14    1
    39     9    15    1
    40     9    16    1
@<TRIPOS>MOLECULE
*****
 37 40 0 0 0
SMALL
GASTEIGER

@<TRIPOS>ATOM
      1 N          64.1523   84.4523   11.7694 N.am    1  UNL1       -0.2837
      2 C          62.7451   84.7374   11.3356 C.2     1  UNL1        0.3046
      3 O          61.8870   83.6304   10.7987 O.2     1  UNL1       -0.2526
      4 N          62.1959   86.1294   11.4386 N.am    1  UNL1       -0.2543
      5 C          60.8149   86.5638   11.0458 C.3     1  UNL1        0.1409
      6 C          60.6967   88.0343   11.3170 C.ar    1  UNL1        0.0810
      7 N          59.5672   89.0026   11.1260 N.ar    1  UNL1       -0.2169
      8 C          59.7455   90.4454   11.4954 C.ar    1  UNL1        0.2134
      9 N          58.6159   91.4137   11.3045 N.pl3   1  UNL1       -0.3275
     10 N          61.0534   90.9199   12.0559 N.ar    1  UNL1       -0.2141
     11 C          62.1830   89.9516   12.2469 C.ar    1  UNL1        0.0867
     12 C          62.0047   88.5088   11.8774 C.ar    1  UNL1        0.0309
     13 C          62.9311   87.3316   11.9526 C.3     1  UNL1        0.1248
     14 H          64.7155   85.1789   12.1218 H       1  UNL1        0.1512
     15 H          57.7575   91.1022   10.9366 H       1  UNL1        0.1452
     16 H          58.7330   92.3606   11.5470 H       1  UNL1        0.1452
     17 C          63.4910   90.4261   12.8074 C.ar    1  UNL1        0.0621
     18 C          64.3856   91.3043   11.9836 C.ar    1  UNL1        0.0629
     19 CL         63.9722   91.7078   10.5993 Cl      1  UNL1       -0.0821
     20 C          65.6935   91.7788   12.5440 C.ar    1  UNL1        0.0230
     21 C          66.1068   91.3752   13.9284 C.ar    1  UNL1        0.0615
     22 CL         67.4147   91.8497   14.4889 Cl      1  UNL1       -0.0821
     23 C          65.2122   90.4971   14.7522 C.ar    1  UNL1        0.0484
     24 C          63.9043   90.0226   14.1917 C.ar    1  UNL1        0.1417
     25 O          63.0097   89.1445   15.0155 O.3     1  UNL1       -0.4732
     26 C          63.0805   89.1961   16.5129 C.3     1  UNL1        0.2316
     27 C          63.0431   87.9258   17.3098 C.3     1  UNL1        0.1746
     28 N          63.0629   86.5999   16.6088 N.ar    1  UNL1       -0.2455
     29 C          64.1799   86.0673   15.7611 C.ar    1  UNL1        0.0968
     30 C          63.7765   84.7119   15.2608 C.ar    1  UNL1        0.0427
     31 C          62.4101   84.4068   15.7994 C.ar    1  UNL1        0.1217
     32 N          61.9691   85.5736   16.6325 N.ar    1  UNL1       -0.1675
     33 C          64.7015   83.0603   11.6664 C.3     1  UNL1        0.1578
     34 C          63.0226   80.7195   12.5043 C.3     1  UNL1        0.0740
     35 C          63.8620   81.8899   12.0854 C.3     1  UNL1        0.2818
     36 F          64.0404   82.2768   13.5236 F       1  UNL1       -0.2025
     37 F          63.6837   81.5030   10.6472 F       1  UNL1       -0.2025
@<TRIPOS>BOND
     1    34    35    1
     2    35    36    1
     3    35    37    1
     4    35    33    1
     5    33     1    1
     6     1     2   am
     7     2     3    2
     8     2     4   am
     9     4     5    1
    10     5     6    1
    11     6     7   ar
    12     7     8   ar
    13     8     9    1
    14     8    10   ar
    15    10    11   ar
    16    11    17    1
    17    17    18   ar
    18    18    19    1
    19    18    20   ar
    20    20    21   ar
    21    21    22    1
    22    21    23   ar
    23    23    24   ar
    24    24    25    1
    25    25    26    1
    26    26    27    1
    27    27    28    1
    28    28    29   ar
    29    29    30   ar
    30    30    31   ar
    31    31    32   ar
    32    11    12   ar
    33    12    13    1
    34    13     4    1
    35    12     6   ar
    36    24    17   ar
    37    32    28   ar
    38     1    14    1
    39     9    15    1
    40     9    16    1
@<TRIPOS>MOLECULE
*****
 37 40 0 0 0
SMALL
GASTEIGER

@<TRIPOS>ATOM
      1 N          62.5570   80.7351   11.8272 N.am    1  UNL1       -0.2837
      2 C          63.3352   81.4003   12.9235 C.2     1  UNL1        0.3046
      3 O          64.0560   80.5686   13.9426 O.2     1  UNL1       -0.2526
      4 N          63.3926   82.8972   13.0006 N.am    1  UNL1       -0.2543
      5 C          64.1265   83.6993   14.0341 C.3     1  UNL1        0.1409
      6 C          63.9137   85.1527   13.7300 C.ar    1  UNL1        0.0810
      7 N          64.3962   86.4010   14.4075 N.ar    1  UNL1       -0.2169
      8 C          64.0131   87.7455   13.8636 C.ar    1  UNL1        0.2134
      9 N          64.4956   88.9937   14.5411 N.pl3   1  UNL1       -0.3275
     10 N          63.1476   87.8416   12.6423 N.ar    1  UNL1       -0.2141
     11 C          62.6652   86.5932   11.9648 C.ar    1  UNL1        0.0867
     12 C          63.0482   85.2488   12.5087 C.ar    1  UNL1        0.0309
     13 C          62.7262   83.8549   12.0579 C.3     1  UNL1        0.1248
     14 H          62.0838   81.2810   11.1583 H       1  UNL1        0.1512
     15 H          65.0636   88.9306   15.3427 H       1  UNL1        0.1452
     16 H          64.2442   89.8761   14.1842 H       1  UNL1        0.1452
     17 C          61.7997   86.6894   10.7435 C.ar    1  UNL1        0.0621
     18 C          62.1660   85.9296    9.5030 C.ar    1  UNL1        0.0629
     19 CL         63.3977   85.0738    9.4839 Cl      1  UNL1       -0.0821
     20 C          61.3005   86.0258    8.2817 C.ar    1  UNL1        0.0230
     21 C          60.0687   86.8817    8.3008 C.ar    1  UNL1        0.0615
     22 CL         59.2032   86.9778    7.0794 Cl      1  UNL1       -0.0821
     23 C          59.7025   87.6413    9.5412 C.ar    1  UNL1        0.0484
     24 C          60.5680   87.5452   10.7626 C.ar    1  UNL1        0.1417
     25 O          60.2017   88.3050   12.0030 O.3     1  UNL1       -0.4732
     26 C          60.3478   89.7974   12.0391 C.3     1  UNL1        0.2316
     27 C          61.1156   90.5021   10.9602 C.3     1  UNL1        0.1746
     28 N          62.4919   91.0284   11.2407 N.ar    1  UNL1       -0.2455
     29 C          63.4547   91.5654   10.2235 C.ar    1  UNL1        0.0968
     30 C          64.7049   91.9790   10.9417 C.ar    1  UNL1        0.0427
     31 C          64.5148   91.6976   12.4028 C.ar    1  UNL1        0.1217
     32 N          63.1470   91.1101   12.5875 N.ar    1  UNL1       -0.1675
     33 C          62.4995   79.2382   11.7501 C.3     1  UNL1        0.1578
     34 C          63.4472   77.8262    9.2786 C.3     1  UNL1        0.0740
     35 C          62.9734   78.5322   10.5143 C.3     1  UNL1        0.2818
     36 F          63.0472   77.2436   11.2788 F       1  UNL1       -0.2025
     37 F          62.8996   79.8206    9.7499 F       1  UNL1       -0.2025
@<TRIPOS>BOND
     1    34    35    1
     2    35    36    1
     3    35    37    1
     4    35    33    1
     5    33     1    1
     6     1     2   am
     7     2     3    2
     8     2     4   am
     9     4     5    1
    10     5     6    1
    11     6     7   ar
    12     7     8   ar
    13     8     9    1
    14     8    10   ar
    15    10    11   ar
    16    11    17    1
    17    17    18   ar
    18    18    19    1
    19    18    20   ar
    20    20    21   ar
    21    21    22    1
    22    21    23   ar
    23    23    24   ar
    24    24    25    1
    25    25    26    1
    26    26    27    1
    27    27    28    1
    28    28    29   ar
    29    29    30   ar
    30    30    31   ar
    31    31    32   ar
    32    11    12   ar
    33    12    13    1
    34    13     4    1
    35    12     6   ar
    36    24    17   ar
    37    32    28   ar
    38     1    14    1
    39     9    15    1
    40     9    16    1
@<TRIPOS>MOLECULE
*****
 37 40 0 0 0
SMALL
GASTEIGER

@<TRIPOS>ATOM
      1 N          64.2181   85.7953   13.4117 N.am    1  UNL1       -0.2837
      2 C          63.6634   86.3315   14.6980 C.2     1  UNL1        0.3046
      3 O          62.9196   85.4223   15.6308 O.2     1  UNL1       -0.2526
      4 N          63.8524   87.7769   15.0516 N.am    1  UNL1       -0.2543
      5 C          63.3570   88.4523   16.2959 C.3     1  UNL1        0.1409
      6 C          63.7685   89.8936   16.2363 C.ar    1  UNL1        0.0810
      7 N          63.5574   91.0376   17.1831 N.ar    1  UNL1       -0.2169
      8 C          64.0960   92.3971   16.8487 C.ar    1  UNL1        0.2134
      9 N          63.8849   93.5412   17.7955 N.pl3   1  UNL1       -0.3275
     10 N          64.8458   92.6125   15.5675 N.ar    1  UNL1       -0.2141
     11 C          65.0569   91.4683   14.6206 C.ar    1  UNL1        0.0867
     12 C          64.5183   90.1089   14.9551 C.ar    1  UNL1        0.0309
     13 C          64.5701   88.8007   14.2229 C.3     1  UNL1        0.1248
     14 H          64.7063   86.3920   12.7995 H       1  UNL1        0.1512
     15 H          63.3928   93.3999   18.6364 H       1  UNL1        0.1452
     16 H          64.2384   94.4334   17.5760 H       1  UNL1        0.1452
     17 C          65.8066   91.6836   13.3394 C.ar    1  UNL1        0.0621
     18 C          67.3044   91.7665   13.3517 C.ar    1  UNL1        0.0629
     19 CL         68.0522   91.6341   14.6452 Cl      1  UNL1       -0.0821
     20 C          68.0541   91.9818   12.0705 C.ar    1  UNL1        0.0230
     21 C          67.3061   92.1143   10.7770 C.ar    1  UNL1        0.0615
     22 CL         68.0559   92.3296    9.4958 Cl      1  UNL1       -0.0821
     23 C          65.8085   92.0314   10.7648 C.ar    1  UNL1        0.0484
     24 C          65.0588   91.8160   12.0460 C.ar    1  UNL1        0.1417
     25 O          63.5611   91.7332   12.0337 O.3     1  UNL1       -0.4732
     26 C          62.8827   90.4905   11.5381 C.3     1  UNL1        0.2316
     27 C          62.1435   90.5092   10.2330 C.3     1  UNL1        0.1746
     28 N          61.4960   89.2573    9.7199 N.ar    1  UNL1       -0.2455
     29 C          62.0390   87.8654    9.8532 C.ar    1  UNL1        0.0968
     30 C          61.0704   86.9253    9.1990 C.ar    1  UNL1        0.0427
     31 C          59.9287   87.7362    8.6613 C.ar    1  UNL1        0.1217
     32 N          60.1918   89.1774    8.9833 N.ar    1  UNL1       -0.1675
     33 C          64.0290   84.3498   13.0581 C.3     1  UNL1        0.1578
     34 C          63.7437   83.5333   10.1855 C.3     1  UNL1        0.0740
     35 C          63.8864   83.9415   11.6218 C.3     1  UNL1        0.2818
     36 F          64.8464   82.8113   11.8477 F       1  UNL1       -0.2025
     37 F          62.9264   85.0717   11.3959 F       1  UNL1       -0.2025
@<TRIPOS>BOND
     1    34    35    1
     2    35    36    1
     3    35    37    1
     4    35    33    1
     5    33     1    1
     6     1     2   am
     7     2     3    2
     8     2     4   am
     9     4     5    1
    10     5     6    1
    11     6     7   ar
    12     7     8   ar
    13     8     9    1
    14     8    10   ar
    15    10    11   ar
    16    11    17    1
    17    17    18   ar
    18    18    19    1
    19    18    20   ar
    20    20    21   ar
    21    21    22    1
    22    21    23   ar
    23    23    24   ar
    24    24    25    1
    25    25    26    1
    26    26    27    1
    27    27    28    1
    28    28    29   ar
    29    29    30   ar
    30    30    31   ar
    31    31    32   ar
    32    11    12   ar
    33    12    13    1
    34    13     4    1
    35    12     6   ar
    36    24    17   ar
    37    32    28   ar
    38     1    14    1
    39     9    15    1
    40     9    16    1
@<TRIPOS>MOLECULE
*****
 37 40 0 0 0
SMALL
GASTEIGER

@<TRIPOS>ATOM
      1 N          64.7027   90.9619   12.7068 N.am    1  UNL1       -0.2837
      2 C          64.6392   90.3184   14.0602 C.2     1  UNL1        0.3046
      3 O          64.9655   91.1178   15.2867 O.2     1  UNL1       -0.2526
      4 N          64.2493   88.8755   14.1872 N.am    1  UNL1       -0.2543
      5 C          64.1429   88.1002   15.4668 C.3     1  UNL1        0.1409
      6 C          63.7252   86.7001   15.1273 C.ar    1  UNL1        0.0810
      7 N          63.4635   85.4956   15.9820 N.ar    1  UNL1       -0.2169
      8 C          63.0500   84.2010   15.3471 C.ar    1  UNL1        0.2134
      9 N          62.7882   82.9965   16.2018 N.pl3   1  UNL1       -0.3275
     10 N          62.8982   84.1109   13.8575 N.ar    1  UNL1       -0.2141
     11 C          63.1600   85.3156   13.0028 C.ar    1  UNL1        0.0867
     12 C          63.5735   86.6101   13.6377 C.ar    1  UNL1        0.0309
     13 C          63.8974   87.9546   13.0567 C.3     1  UNL1        0.1248
     14 H          64.4885   90.4372   11.9017 H       1  UNL1        0.1512
     15 H          62.8878   83.0556   17.1795 H       1  UNL1        0.1452
     16 H          62.5168   82.1468   15.7851 H       1  UNL1        0.1452
     17 C          63.0083   85.2255   11.5132 C.ar    1  UNL1        0.0621
     18 C          63.6864   84.1227   10.7556 C.ar    1  UNL1        0.0629
     19 CL         64.5162   83.1099   11.4875 Cl      1  UNL1       -0.0821
     20 C          63.5347   84.0326    9.2660 C.ar    1  UNL1        0.0230
     21 C          62.7048   85.0454    8.5340 C.ar    1  UNL1        0.0615
     22 CL         62.5531   84.9554    7.0445 Cl      1  UNL1       -0.0821
     23 C          62.0268   86.1482    9.2917 C.ar    1  UNL1        0.0484
     24 C          62.1785   86.2382   10.7813 C.ar    1  UNL1        0.1417
     25 O          61.5004   87.3411   11.5389 O.3     1  UNL1       -0.4732
     26 C          60.1731   87.8637   11.0751 C.3     1  UNL1        0.2316
     27 C          60.1102   89.0823   10.2027 C.3     1  UNL1        0.1746
     28 N          59.7604   88.9477    8.7503 N.ar    1  UNL1       -0.2455
     29 C          59.8857   90.0210    7.7100 C.ar    1  UNL1        0.0968
     30 C          59.4266   89.4528    6.4000 C.ar    1  UNL1        0.0427
     31 C          59.0176   88.0281    6.6306 C.ar    1  UNL1        0.1217
     32 N          59.2239   87.7160    8.0832 N.ar    1  UNL1       -0.1675
     33 C          65.0926   92.4047   12.5799 C.3     1  UNL1        0.1578
     34 C          66.9923   93.2609   10.4216 C.3     1  UNL1        0.0740
     35 C          66.0425   92.8328   11.5007 C.3     1  UNL1        0.2818
     36 F          64.8873   93.3203   10.6773 F       1  UNL1       -0.2025
     37 F          67.1976   92.3454   12.3241 F       1  UNL1       -0.2025
@<TRIPOS>BOND
     1    34    35    1
     2    35    36    1
     3    35    37    1
     4    35    33    1
     5    33     1    1
     6     1     2   am
     7     2     3    2
     8     2     4   am
     9     4     5    1
    10     5     6    1
    11     6     7   ar
    12     7     8   ar
    13     8     9    1
    14     8    10   ar
    15    10    11   ar
    16    11    17    1
    17    17    18   ar
    18    18    19    1
    19    18    20   ar
    20    20    21   ar
    21    21    22    1
    22    21    23   ar
    23    23    24   ar
    24    24    25    1
    25    25    26    1
    26    26    27    1
    27    27    28    1
    28    28    29   ar
    29    29    30   ar
    30    30    31   ar
    31    31    32   ar
    32    11    12   ar
    33    12    13    1
    34    13     4    1
    35    12     6   ar
    36    24    17   ar
    37    32    28   ar
    38     1    14    1
    39     9    15    1
    40     9    16    1
@<TRIPOS>MOLECULE
*****
 37 40 0 0 0
SMALL
GASTEIGER

@<TRIPOS>ATOM
      1 N          64.1970   84.2976   13.5301 N.am    1  UNL1       -0.2837
      2 C          63.1510   84.4256   12.4627 C.2     1  UNL1        0.3046
      3 O          62.5891   83.1965   11.8120 O.2     1  UNL1       -0.2526
      4 N          62.6669   85.7828   12.0461 N.am    1  UNL1       -0.2543
      5 C          61.6312   86.0663   10.9986 C.3     1  UNL1        0.1409
      6 C          61.4576   87.5535   10.9089 C.ar    1  UNL1        0.0810
      7 N          60.5742   88.4110   10.0520 N.ar    1  UNL1       -0.2169
      8 C          60.6191   89.9043   10.1872 C.ar    1  UNL1        0.2134
      9 N          59.7356   90.7618    9.3303 N.pl3   1  UNL1       -0.3275
     10 N          61.5474   90.5400   11.1791 N.ar    1  UNL1       -0.2141
     11 C          62.4309   89.6824   12.0360 C.ar    1  UNL1        0.0867
     12 C          62.3860   88.1892   11.9008 C.ar    1  UNL1        0.0309
     13 C          63.1333   87.0949   12.6036 C.3     1  UNL1        0.1248
     14 H          64.5659   85.1043   13.9572 H       1  UNL1        0.1512
     15 H          59.1263   90.3445    8.6793 H       1  UNL1        0.1452
     16 H          59.7651   91.7418    9.4190 H       1  UNL1        0.1452
     17 C          63.3593   90.3181   13.0279 C.ar    1  UNL1        0.0621
     18 C          63.1435   90.1096   14.4976 C.ar    1  UNL1        0.0629
     19 CL         61.9994   89.2653   14.9753 Cl      1  UNL1       -0.0821
     20 C          64.0719   90.7453   15.4896 C.ar    1  UNL1        0.0230
     21 C          65.2161   91.5896   15.0118 C.ar    1  UNL1        0.0615
     22 CL         66.1444   92.2253   16.0038 Cl      1  UNL1       -0.0821
     23 C          65.4318   91.7981   13.5422 C.ar    1  UNL1        0.0484
     24 C          64.5034   91.1624   12.5502 C.ar    1  UNL1        0.1417
     25 O          64.7192   91.3710   11.0805 O.3     1  UNL1       -0.4732
     26 C          64.9569   92.7521   10.5459 C.3     1  UNL1        0.2316
     27 C          66.2808   93.4229   10.7634 C.3     1  UNL1        0.1746
     28 N          66.6809   94.5880    9.9075 N.ar    1  UNL1       -0.2455
     29 C          66.7874   96.0156   10.3553 C.ar    1  UNL1        0.0968
     30 C          67.2170   96.8399    9.1781 C.ar    1  UNL1        0.0427
     31 C          67.3759   95.9217    8.0026 C.ar    1  UNL1        0.1217
     32 N          67.0445   94.5300    8.4534 N.ar    1  UNL1       -0.1675
     33 C          64.6812   82.9404   13.9468 C.3     1  UNL1        0.1578
     34 C          62.7540   80.6476   14.1179 C.3     1  UNL1        0.0740
     35 C          63.7175   81.7940   14.0324 C.3     1  UNL1        0.2818
     36 F          62.9267   82.5361   15.0687 F       1  UNL1       -0.2025
     37 F          64.5083   81.0519   12.9960 F       1  UNL1       -0.2025
@<TRIPOS>BOND
     1    34    35    1
     2    35    36    1
     3    35    37    1
     4    35    33    1
     5    33     1    1
     6     1     2   am
     7     2     3    2
     8     2     4   am
     9     4     5    1
    10     5     6    1
    11     6     7   ar
    12     7     8   ar
    13     8     9    1
    14     8    10   ar
    15    10    11   ar
    16    11    17    1
    17    17    18   ar
    18    18    19    1
    19    18    20   ar
    20    20    21   ar
    21    21    22    1
    22    21    23   ar
    23    23    24   ar
    24    24    25    1
    25    25    26    1
    26    26    27    1
    27    27    28    1
    28    28    29   ar
    29    29    30   ar
    30    30    31   ar
    31    31    32   ar
    32    11    12   ar
    33    12    13    1
    34    13     4    1
    35    12     6   ar
    36    24    17   ar
    37    32    28   ar
    38     1    14    1
    39     9    15    1
    40     9    16    1
@<TRIPOS>MOLECULE
*****
 37 40 0 0 0
SMALL
GASTEIGER

@<TRIPOS>ATOM
      1 N          65.7988   91.3169   10.6968 N.am    1  UNL1       -0.2837
      2 C          64.7574   91.6953   11.7079 C.2     1  UNL1        0.3046
      3 O          64.9880   92.8627   12.6211 O.2     1  UNL1       -0.2526
      4 N          63.4855   90.9062   11.8059 N.am    1  UNL1       -0.2543
      5 C          62.3592   91.1645   12.7623 C.3     1  UNL1        0.1409
      6 C          61.2941   90.1382   12.5122 C.ar    1  UNL1        0.0810
      7 N          59.9586   89.9011   13.1525 N.ar    1  UNL1       -0.2169
      8 C          59.0911   88.7715   12.6818 C.ar    1  UNL1        0.2134
      9 N          57.7556   88.5344   13.3222 N.pl3   1  UNL1       -0.3275
     10 N          59.5592   87.8790   11.5708 N.ar    1  UNL1       -0.2141
     11 C          60.8948   88.1162   10.9305 C.ar    1  UNL1        0.0867
     12 C          61.7622   89.2457   11.4011 C.ar    1  UNL1        0.0309
     13 C          63.1166   89.7204   10.9647 C.3     1  UNL1        0.1248
     14 H          65.6474   90.5507   10.0974 H       1  UNL1        0.1512
     15 H          57.4483   89.1202   14.0514 H       1  UNL1        0.1452
     16 H          57.1862   87.7931   13.0133 H       1  UNL1        0.1452
     17 C          61.3629   87.2237    9.8195 C.ar    1  UNL1        0.0621
     18 C          60.7552   87.3450    8.4534 C.ar    1  UNL1        0.0629
     19 CL         59.6796   88.3588    8.1984 Cl      1  UNL1       -0.0821
     20 C          61.2233   86.4525    7.3424 C.ar    1  UNL1        0.0230
     21 C          62.2991   85.4387    7.5974 C.ar    1  UNL1        0.0615
     22 CL         62.7672   84.5462    6.4864 Cl      1  UNL1       -0.0821
     23 C          62.9067   85.3174    8.9635 C.ar    1  UNL1        0.0484
     24 C          62.4386   86.2099   10.0745 C.ar    1  UNL1        0.1417
     25 O          63.0462   86.0885   11.4406 O.3     1  UNL1       -0.4732
     26 C          62.4541   85.1434   12.4435 C.3     1  UNL1        0.2316
     27 C          63.3200   84.1126   13.1050 C.3     1  UNL1        0.1746
     28 N          62.8270   82.7040   13.2562 N.ar    1  UNL1       -0.2455
     29 C          63.1484   81.5550   12.3471 C.ar    1  UNL1        0.0968
     30 C          62.4460   80.3380   12.8720 C.ar    1  UNL1        0.0427
     31 C          61.6904   80.7350   14.1055 C.ar    1  UNL1        0.1217
     32 N          61.9258   82.1972   14.3429 N.ar    1  UNL1       -0.1675
     33 C          67.0707   92.1060   10.5988 C.3     1  UNL1        0.1578
     34 C          67.3095   94.3234    8.5923 C.3     1  UNL1        0.0740
     35 C          67.1901   93.2147    9.5955 C.3     1  UNL1        0.2818
     36 F          65.7493   93.5693    9.8159 F       1  UNL1       -0.2025
     37 F          68.6308   92.8602    9.3752 F       1  UNL1       -0.2025
@<TRIPOS>BOND
     1    34    35    1
     2    35    36    1
     3    35    37    1
     4    35    33    1
     5    33     1    1
     6     1     2   am
     7     2     3    2
     8     2     4   am
     9     4     5    1
    10     5     6    1
    11     6     7   ar
    12     7     8   ar
    13     8     9    1
    14     8    10   ar
    15    10    11   ar
    16    11    17    1
    17    17    18   ar
    18    18    19    1
    19    18    20   ar
    20    20    21   ar
    21    21    22    1
    22    21    23   ar
    23    23    24   ar
    24    24    25    1
    25    25    26    1
    26    26    27    1
    27    27    28    1
    28    28    29   ar
    29    29    30   ar
    30    30    31   ar
    31    31    32   ar
    32    11    12   ar
    33    12    13    1
    34    13     4    1
    35    12     6   ar
    36    24    17   ar
    37    32    28   ar
    38     1    14    1
    39     9    15    1
    40     9    16    1
