@<TRIPOS>MOLECULE
*****
 36 39 0 0 0
SMALL
GASTEIGER

@<TRIPOS>ATOM
      1 N          63.0281   90.8736   11.7781 N.am    1  UNL1       -0.2438
      2 C          63.5420   91.5064   10.5189 C.3     1  UNL1        0.1009
      3 C          64.7336   92.4161   10.5690 C.3     1  UNL1        0.0662
      4 C          65.4114   92.6930   11.8781 C.3     1  UNL1        0.1600
      5 O          64.8976   92.0601   13.1373 O.3     1  UNL1       -0.4374
      6 C          63.7060   91.1505   13.0873 C.2     1  UNL1        0.4051
      7 O          63.1921   90.5176   14.3465 O.2     1  UNL1       -0.2262
      8 C          66.2633   93.5219   10.9633 C.ar    1  UNL1        0.0138
      9 C          67.1611   92.8541    9.9644 C.ar    1  UNL1       -0.0010
     10 C          68.0131   93.6830    9.0496 C.ar    1  UNL1       -0.0002
     11 C          67.9673   95.1799    9.1336 C.ar    1  UNL1       -0.0000
     12 C          67.0696   95.8479   10.1325 C.ar    1  UNL1       -0.0002
     13 C          66.2175   95.0190   11.0474 C.ar    1  UNL1       -0.0010
     14 C          61.8366   89.9639   11.7281 C.3     1  UNL1        0.1011
     15 C          60.4521   90.5410   11.7243 C.3     1  UNL1        0.0265
     16 C          62.4153   85.5034   11.5893 C.ar    1  UNL1        0.0002
     17 C          61.3109   86.1413   10.7999 C.ar    1  UNL1       -0.0003
     18 C          61.1180   87.6281   10.8461 C.ar    1  UNL1       -0.0027
     19 C          62.0295   88.4771   11.6818 C.ar    1  UNL1       -0.0042
     20 C          63.1339   87.8391   12.4713 C.ar    1  UNL1       -0.0027
     21 C          63.3268   86.3523   12.4250 C.ar    1  UNL1       -0.0003
     22 N          62.9940   81.0429   11.4506 N.ar    1  UNL1       -0.2942
     23 C          63.5078   81.9010   10.3328 C.ar    1  UNL1        0.0783
     24 C          63.3149   83.3878   10.3790 C.ar    1  UNL1        0.0189
     25 C          62.6082   84.0166   11.5431 C.ar    1  UNL1        0.0062
     26 C          62.0943   83.1585   12.6609 C.ar    1  UNL1        0.0608
     27 C          62.2872   81.6717   12.6147 C.ar    1  UNL1        0.2610
     28 O          61.7733   80.8136   13.7326 O.2     1  UNL1       -0.2670
     29 C          62.7894   78.7860   10.1801 C.3     1  UNL1        0.0266
     30 C          63.1869   79.5561   11.4043 C.3     1  UNL1        0.1092
     31 C          66.3850   93.2577   12.8696 C.3     1  UNL1        0.0714
     32 C          67.0523   92.3541   13.8638 C.3     1  UNL1        0.0922
     33 C          67.8198   91.6994   12.7536 C.3     1  UNL1        0.0294
     34 C          66.2848   93.0087   14.9739 C.3     1  UNL1        0.0294
     35 O          67.7195   91.4504   14.8579 O.3     1  UNL1       -0.3866
     36 H          68.3312   90.8565   14.3954 H       1  UNL1        0.2102
@<TRIPOS>BOND
     1    29    30    1
     2    30    22    1
     3    22    23   ar
     4    23    24   ar
     5    24    25   ar
     6    25    16    1
     7    16    17   ar
     8    17    18   ar
     9    18    19   ar
    10    19    14    1
    11    14    15    1
    12    14     1    1
    13     1     2    1
    14     2     3    1
    15     3     4    1
    16     4    31    1
    17    31    32    1
    18    32    33    1
    19    32    34    1
    20    32    35    1
    21     4     8    1
    22     8     9   ar
    23     9    10   ar
    24    10    11   ar
    25    11    12   ar
    26    12    13   ar
    27     4     5    1
    28     5     6    1
    29     6     7    2
    30    19    20   ar
    31    20    21   ar
    32    25    26   ar
    33    26    27   ar
    34    27    28    2
    35    27    22   ar
    36    21    16   ar
    37     6     1   am
    38    13     8   ar
    39    35    36    1
@<TRIPOS>MOLECULE
*****
 36 39 0 0 0
SMALL
GASTEIGER

@<TRIPOS>ATOM
      1 N          63.4361   90.5116   12.0137 N.am    1  UNL1       -0.2438
      2 C          64.1051   90.3180   13.3422 C.3     1  UNL1        0.1009
      3 C          65.2958   91.1525   13.7110 C.3     1  UNL1        0.0662
      4 C          65.8174   92.1805   12.7513 C.3     1  UNL1        0.1600
      5 O          65.1484   92.3741   11.4228 O.3     1  UNL1       -0.4374
      6 C          63.9577   91.5397   11.0540 C.2     1  UNL1        0.4051
      7 O          63.2887   91.7333    9.7255 O.2     1  UNL1       -0.2262
      8 C          66.7842   92.3664   13.8829 C.ar    1  UNL1        0.0138
      9 C          66.2914   92.8276   15.2224 C.ar    1  UNL1       -0.0010
     10 C          67.2581   93.0135   16.3541 C.ar    1  UNL1       -0.0002
     11 C          68.7179   92.7381   16.1463 C.ar    1  UNL1       -0.0000
     12 C          69.2109   92.2768   14.8069 C.ar    1  UNL1       -0.0002
     13 C          68.2441   92.0909   13.6751 C.ar    1  UNL1       -0.0010
     14 C          62.2454   89.6772   11.6450 C.3     1  UNL1        0.1011
     15 C          60.9413   90.3381   11.3098 C.3     1  UNL1        0.0265
     16 C          62.5859   85.1912   11.5443 C.ar    1  UNL1        0.0002
     17 C          61.8408   85.9113   10.4597 C.ar    1  UNL1       -0.0003
     18 C          61.7274   87.4067   10.4933 C.ar    1  UNL1       -0.0027
     19 C          62.3589   88.1818   11.6114 C.ar    1  UNL1       -0.0042
     20 C          63.1039   87.4617   12.6959 C.ar    1  UNL1       -0.0027
     21 C          63.2174   85.9664   12.6624 C.ar    1  UNL1       -0.0003
     22 N          62.9263   80.7052   11.4436 N.ar    1  UNL1       -0.2942
     23 C          63.4688   81.5242   10.3101 C.ar    1  UNL1        0.0783
     24 C          63.3553   83.0195   10.3436 C.ar    1  UNL1        0.0189
     25 C          62.6994   83.6959   11.5107 C.ar    1  UNL1        0.0062
     26 C          62.1568   82.8769   12.6442 C.ar    1  UNL1        0.0608
     27 C          62.2703   81.3816   12.6107 C.ar    1  UNL1        0.2610
     28 O          61.7278   80.5626   13.7443 O.2     1  UNL1       -0.2670
     29 C          62.7241   78.4619   10.1488 C.3     1  UNL1        0.0266
     30 C          63.0398   79.2099   11.4100 C.3     1  UNL1        0.1092
     31 C          66.6748   93.2731   12.1846 C.3     1  UNL1        0.0714
     32 C          66.5687   93.6326   10.7321 C.3     1  UNL1        0.0922
     33 C          65.7544   94.8403   11.0905 C.3     1  UNL1        0.0294
     34 C          67.3830   92.4249   10.3737 C.3     1  UNL1        0.0294
     35 O          66.4626   93.9921    9.2797 O.3     1  UNL1       -0.3866
     36 H          65.9433   94.8059    9.1851 H       1  UNL1        0.2102
@<TRIPOS>BOND
     1    29    30    1
     2    30    22    1
     3    22    23   ar
     4    23    24   ar
     5    24    25   ar
     6    25    16    1
     7    16    17   ar
     8    17    18   ar
     9    18    19   ar
    10    19    14    1
    11    14    15    1
    12    14     1    1
    13     1     2    1
    14     2     3    1
    15     3     4    1
    16     4    31    1
    17    31    32    1
    18    32    33    1
    19    32    34    1
    20    32    35    1
    21     4     8    1
    22     8     9   ar
    23     9    10   ar
    24    10    11   ar
    25    11    12   ar
    26    12    13   ar
    27     4     5    1
    28     5     6    1
    29     6     7    2
    30    19    20   ar
    31    20    21   ar
    32    25    26   ar
    33    26    27   ar
    34    27    28    2
    35    27    22   ar
    36    21    16   ar
    37     6     1   am
    38    13     8   ar
    39    35    36    1
