@<TRIPOS>MOLECULE
*****
 35 38 0 0 0
SMALL
GASTEIGER

@<TRIPOS>ATOM
      1 N          64.0863   89.7509   15.5531 N.ar    1  UNL1       -0.2459
      2 C          64.5215   88.5861   14.7142 C.ar    1  UNL1        0.1116
      3 C          63.9255   87.3421   15.3034 C.ar    1  UNL1        0.0908
      4 C          63.1219   87.7381   16.5065 C.ar    1  UNL1        0.1363
      5 N          63.2213   89.2268   16.6608 N.ar    1  UNL1       -0.1661
      6 N          64.1021   85.9471   14.7812 N.am    1  UNL1       -0.2766
      7 C          63.0638   84.9027   15.0659 C.2     1  UNL1        0.2706
      8 O          61.8488   85.2533   15.8728 O.2     1  UNL1       -0.2680
      9 H          64.8995   85.7169   14.2517 H       1  UNL1        0.1553
     10 C          63.2404   83.5077   14.5437 C.ar    1  UNL1        0.1765
     11 C          62.8905   83.0314   13.1650 C.ar    1  UNL1        0.0704
     12 C          63.2318   81.5733   13.0778 C.ar    1  UNL1        0.2113
     13 O          63.7925   81.1484   14.4025 O.2     1  UNL1       -0.3501
     14 N          63.7979   82.3439   15.3086 N.ar    1  UNL1       -0.0722
     15 C          63.0450   80.6945   11.8766 C.ar    1  UNL1        0.1824
     16 C          63.1888   81.1164   10.4445 C.ar    1  UNL1        0.0440
     17 C          62.9143   79.9222    9.5795 C.ar    1  UNL1        0.0439
     18 C          62.6009   78.7620   10.4771 C.ar    1  UNL1        0.1798
     19 O          62.6817   79.2393   11.8969 O.2     1  UNL1       -0.4472
     20 C          64.1652   92.2119   16.3821 C.3     1  UNL1        0.0312
     21 C          64.4519   91.1876   15.3245 C.3     1  UNL1        0.1274
     22 C          65.1042   91.6000   14.0382 C.ar    1  UNL1        0.0038
     23 C          64.3264   91.5598   12.7563 C.ar    1  UNL1       -0.0025
     24 C          64.9787   91.9722   11.4700 C.ar    1  UNL1        0.0036
     25 C          66.4088   92.4246   11.4657 C.ar    1  UNL1        0.0714
     26 C          67.1866   92.4648   12.7476 C.ar    1  UNL1        0.0074
     27 C          66.5343   92.0524   14.0338 C.ar    1  UNL1        0.0692
     28 C          67.0611   92.8370   10.1794 C.3     1  UNL1        0.4186
     29 F          67.7133   93.2493    8.8931 F       1  UNL1       -0.1659
     30 F          68.2006   91.9020   10.4574 F       1  UNL1       -0.1659
     31 F          65.9217   93.7720    9.9013 F       1  UNL1       -0.1659
     32 C          67.3122   92.0926   15.3158 C.3     1  UNL1        0.4183
     33 F          68.0900   92.1326   16.5978 F       1  UNL1       -0.1659
     34 F          67.6105   90.6288   15.1806 F       1  UNL1       -0.1659
     35 F          67.0138   93.5563   15.4511 F       1  UNL1       -0.1659
@<TRIPOS>BOND
     1    21    20    1
     2    21    22    1
     3    22    23   ar
     4    23    24   ar
     5    24    25   ar
     6    25    28    1
     7    28    29    1
     8    28    30    1
     9    28    31    1
    10    25    26   ar
    11    26    27   ar
    12    27    32    1
    13    32    33    1
    14    32    34    1
    15    32    35    1
    16    21     1    1
    17     1     2   ar
    18     2     3   ar
    19     3     6    1
    20     6     7   am
    21     7     8    2
    22     7    10    1
    23    10    11   ar
    24    11    12   ar
    25    12    15    1
    26    15    16   ar
    27    16    17   ar
    28    17    18   ar
    29    18    19   ar
    30    12    13   ar
    31    13    14   ar
    32     3     4   ar
    33     4     5   ar
    34    27    22   ar
    35     5     1   ar
    36    14    10   ar
    37    19    15   ar
    38     6     9    1
@<TRIPOS>MOLECULE
*****
 35 38 0 0 0
SMALL
GASTEIGER

@<TRIPOS>ATOM
      1 N          63.2774   86.0827   14.2081 N.ar    1  UNL1       -0.2459
      2 C          63.9055   87.2836   13.5651 C.ar    1  UNL1        0.1116
      3 C          64.2770   88.2496   14.6508 C.ar    1  UNL1        0.0908
      4 C          63.8786   87.6458   15.9648 C.ar    1  UNL1        0.1363
      5 N          63.2608   86.3066   15.6912 N.ar    1  UNL1       -0.1661
      6 N          64.9320   89.5850   14.4566 N.am    1  UNL1       -0.2766
      7 C          64.4088   90.5330   13.4185 C.2     1  UNL1        0.2706
      8 O          63.2308   90.1456   12.5747 O.2     1  UNL1       -0.2680
      9 H          65.7052   89.8393   15.0105 H       1  UNL1        0.1553
     10 C          65.0638   91.8684   13.2243 C.ar    1  UNL1        0.1765
     11 C          65.2598   92.5721   11.9142 C.ar    1  UNL1        0.0704
     12 C          65.9549   93.8732   12.1863 C.ar    1  UNL1        0.2113
     13 O          66.1885   93.9736   13.6646 O.2     1  UNL1       -0.3501
     14 N          65.6378   92.7346   14.3062 N.ar    1  UNL1       -0.0722
     15 C          66.3474   94.8945   11.1603 C.ar    1  UNL1        0.1824
     16 C          65.5693   96.1246   10.7980 C.ar    1  UNL1        0.0440
     17 C          66.3280   96.8554    9.7302 C.ar    1  UNL1        0.0439
     18 C          67.5751   96.0769    9.4325 C.ar    1  UNL1        0.1798
     19 O          67.5871   94.8650   10.3163 O.2     1  UNL1       -0.4472
     20 C          62.3946   83.6401   14.2704 C.3     1  UNL1        0.0312
     21 C          62.7573   84.8708   13.4934 C.3     1  UNL1        0.1274
     22 C          62.6000   84.8896   12.0018 C.ar    1  UNL1        0.0038
     23 C          61.7452   85.9364   11.3510 C.ar    1  UNL1       -0.0025
     24 C          61.5879   85.9552    9.8594 C.ar    1  UNL1        0.0036
     25 C          62.2854   84.9273    9.0186 C.ar    1  UNL1        0.0714
     26 C          63.1402   83.8805    9.6695 C.ar    1  UNL1        0.0074
     27 C          63.2975   83.8617   11.1610 C.ar    1  UNL1        0.0692
     28 C          62.1280   84.9461    7.5270 C.3     1  UNL1        0.4186
     29 F          61.9707   84.9649    6.0354 F       1  UNL1       -0.1659
     30 F          60.7919   85.6112    7.6763 F       1  UNL1       -0.1659
     31 F          63.4642   84.2811    7.3777 F       1  UNL1       -0.1659
     32 C          64.1523   82.8149   11.8119 C.3     1  UNL1        0.4183
     33 F          65.0071   81.7682   12.4628 F       1  UNL1       -0.1659
     34 F          65.1842   83.8558   12.1306 F       1  UNL1       -0.1659
     35 F          63.1204   81.7740   11.4933 F       1  UNL1       -0.1659
@<TRIPOS>BOND
     1    21    20    1
     2    21    22    1
     3    22    23   ar
     4    23    24   ar
     5    24    25   ar
     6    25    28    1
     7    28    29    1
     8    28    30    1
     9    28    31    1
    10    25    26   ar
    11    26    27   ar
    12    27    32    1
    13    32    33    1
    14    32    34    1
    15    32    35    1
    16    21     1    1
    17     1     2   ar
    18     2     3   ar
    19     3     6    1
    20     6     7   am
    21     7     8    2
    22     7    10    1
    23    10    11   ar
    24    11    12   ar
    25    12    15    1
    26    15    16   ar
    27    16    17   ar
    28    17    18   ar
    29    18    19   ar
    30    12    13   ar
    31    13    14   ar
    32     3     4   ar
    33     4     5   ar
    34    27    22   ar
    35     5     1   ar
    36    14    10   ar
    37    19    15   ar
    38     6     9    1
@<TRIPOS>MOLECULE
*****
 35 38 0 0 0
SMALL
GASTEIGER

@<TRIPOS>ATOM
      1 N          61.2655   88.0980   10.0131 N.ar    1  UNL1       -0.2459
      2 C          62.2582   88.5371   11.0484 C.ar    1  UNL1        0.1116
      3 C          62.0126   89.9878   11.3404 C.ar    1  UNL1        0.0908
      4 C          60.8682   90.4453   10.4855 C.ar    1  UNL1        0.1363
      5 N          60.4065   89.2774    9.6652 N.ar    1  UNL1       -0.1661
      6 N          62.7773   90.8326   12.3159 N.am    1  UNL1       -0.2766
      7 C          63.5048   90.1870   13.4578 C.2     1  UNL1        0.2706
      8 O          63.4677   88.6967   13.6242 O.2     1  UNL1       -0.2680
      9 H          62.8016   91.8107   12.2067 H       1  UNL1        0.1553
     10 C          64.2694   91.0318   14.4333 C.ar    1  UNL1        0.1765
     11 C          65.7172   91.4096   14.3271 C.ar    1  UNL1        0.0704
     12 C          66.0630   92.2584   15.5145 C.ar    1  UNL1        0.2113
     13 O          64.8290   92.4053   16.3546 O.2     1  UNL1       -0.3501
     14 N          63.7204   91.6472   15.6864 N.ar    1  UNL1       -0.0722
     15 C          67.4070   92.8555   15.8100 C.ar    1  UNL1        0.1824
     16 C          68.6304   92.1030   16.2423 C.ar    1  UNL1        0.0440
     17 C          69.7429   93.0924   16.4245 C.ar    1  UNL1        0.0439
     18 C          69.2071   94.4565   16.1048 C.ar    1  UNL1        0.1798
     19 O          67.7634   94.3101   15.7250 O.2     1  UNL1       -0.4472
     20 C          60.2784   86.4843    8.2324 C.3     1  UNL1        0.0312
     21 C          61.1519   86.7214    9.4285 C.3     1  UNL1        0.1274
     22 C          61.9119   85.5817   10.0399 C.ar    1  UNL1        0.0038
     23 C          61.8083   85.3156   11.5125 C.ar    1  UNL1       -0.0025
     24 C          62.5683   84.1760   12.1238 C.ar    1  UNL1        0.0036
     25 C          63.4318   83.3026   11.2627 C.ar    1  UNL1        0.0714
     26 C          63.5353   83.5688    9.7902 C.ar    1  UNL1        0.0074
     27 C          62.7754   84.7083    9.1788 C.ar    1  UNL1        0.0692
     28 C          64.1917   82.1630   11.8742 C.3     1  UNL1        0.4186
     29 F          64.9516   81.0234   12.4856 F       1  UNL1       -0.1659
     30 F          64.6821   83.0731   12.9610 F       1  UNL1       -0.1659
     31 F          63.7013   81.2529   10.7874 F       1  UNL1       -0.1659
     32 C          62.8789   84.9745    7.7062 C.3     1  UNL1        0.4183
     33 F          62.9824   85.2408    6.2337 F       1  UNL1       -0.1659
     34 F          63.9274   86.0147    7.9680 F       1  UNL1       -0.1659
     35 F          61.8303   83.9344    7.4444 F       1  UNL1       -0.1659
@<TRIPOS>BOND
     1    21    20    1
     2    21    22    1
     3    22    23   ar
     4    23    24   ar
     5    24    25   ar
     6    25    28    1
     7    28    29    1
     8    28    30    1
     9    28    31    1
    10    25    26   ar
    11    26    27   ar
    12    27    32    1
    13    32    33    1
    14    32    34    1
    15    32    35    1
    16    21     1    1
    17     1     2   ar
    18     2     3   ar
    19     3     6    1
    20     6     7   am
    21     7     8    2
    22     7    10    1
    23    10    11   ar
    24    11    12   ar
    25    12    15    1
    26    15    16   ar
    27    16    17   ar
    28    17    18   ar
    29    18    19   ar
    30    12    13   ar
    31    13    14   ar
    32     3     4   ar
    33     4     5   ar
    34    27    22   ar
    35     5     1   ar
    36    14    10   ar
    37    19    15   ar
    38     6     9    1
@<TRIPOS>MOLECULE
*****
 35 38 0 0 0
SMALL
GASTEIGER

@<TRIPOS>ATOM
      1 N          61.6679   87.4589   11.3314 N.ar    1  UNL1       -0.2459
      2 C          61.9182   88.3708   10.1672 C.ar    1  UNL1        0.1116
      3 C          60.5900   88.8406    9.6522 C.ar    1  UNL1        0.0908
      4 C          59.5187   88.2189   10.4983 C.ar    1  UNL1        0.1363
      5 N          60.1849   87.3650   11.5361 N.ar    1  UNL1       -0.1661
      6 N          60.3715   89.7690    8.4945 N.am    1  UNL1       -0.2766
      7 C          59.5473   89.3252    7.3225 C.2     1  UNL1        0.2706
      8 O          58.9417   87.9529    7.3081 O.2     1  UNL1       -0.2680
      9 H          60.7690   90.6696    8.5039 H       1  UNL1        0.1553
     10 C          59.3288   90.2536    6.1647 C.ar    1  UNL1        0.1765
     11 C          60.4006   90.8878    5.3287 C.ar    1  UNL1        0.0704
     12 C          59.7342   91.7370    4.2871 C.ar    1  UNL1        0.2113
     13 O          58.2507   91.6275    4.4793 O.2     1  UNL1       -0.3501
     14 N          58.0000   90.7107    5.6399 N.ar    1  UNL1       -0.0722
     15 C          60.4295   92.5524    3.2375 C.ar    1  UNL1        0.1824
     16 C          61.8422   92.3668    2.7690 C.ar    1  UNL1        0.0440
     17 C          62.1199   93.3963    1.7141 C.ar    1  UNL1        0.0439
     18 C          60.8787   94.2183    1.5305 C.ar    1  UNL1        0.1798
     19 O          59.8339   93.6967    2.4720 O.2     1  UNL1       -0.4472
     20 C          63.8288   87.5531   12.7707 C.3     1  UNL1        0.0312
     21 C          62.7164   86.7630   12.1478 C.3     1  UNL1        0.1274
     22 C          62.6524   85.2768   12.3411 C.ar    1  UNL1        0.0038
     23 C          62.5144   84.7053   13.7211 C.ar    1  UNL1       -0.0025
     24 C          62.4505   83.2192   13.9144 C.ar    1  UNL1        0.0036
     25 C          62.5245   82.3046   12.7278 C.ar    1  UNL1        0.0714
     26 C          62.6624   82.8761   11.3478 C.ar    1  UNL1        0.0074
     27 C          62.7264   84.3622   11.1545 C.ar    1  UNL1        0.0692
     28 C          62.4605   80.8185   12.9211 C.3     1  UNL1        0.4186
     29 F          62.3965   79.3324   13.1144 F       1  UNL1       -0.1659
     30 F          62.0490   81.0219   14.3491 F       1  UNL1       -0.1659
     31 F          62.8720   80.6150   11.4931 F       1  UNL1       -0.1659
     32 C          62.8644   84.9338    9.7745 C.3     1  UNL1        0.4183
     33 F          63.0024   85.5054    8.3946 F       1  UNL1       -0.1659
     34 F          64.3277   84.6044    9.7844 F       1  UNL1       -0.1659
     35 F          61.4010   85.2632    9.7646 F       1  UNL1       -0.1659
@<TRIPOS>BOND
     1    21    20    1
     2    21    22    1
     3    22    23   ar
     4    23    24   ar
     5    24    25   ar
     6    25    28    1
     7    28    29    1
     8    28    30    1
     9    28    31    1
    10    25    26   ar
    11    26    27   ar
    12    27    32    1
    13    32    33    1
    14    32    34    1
    15    32    35    1
    16    21     1    1
    17     1     2   ar
    18     2     3   ar
    19     3     6    1
    20     6     7   am
    21     7     8    2
    22     7    10    1
    23    10    11   ar
    24    11    12   ar
    25    12    15    1
    26    15    16   ar
    27    16    17   ar
    28    17    18   ar
    29    18    19   ar
    30    12    13   ar
    31    13    14   ar
    32     3     4   ar
    33     4     5   ar
    34    27    22   ar
    35     5     1   ar
    36    14    10   ar
    37    19    15   ar
    38     6     9    1
@<TRIPOS>MOLECULE
*****
 35 38 0 0 0
SMALL
GASTEIGER

@<TRIPOS>ATOM
      1 N          63.8395   87.1997   13.4945 N.ar    1  UNL1       -0.2459
      2 C          62.9944   87.0645   12.2626 C.ar    1  UNL1        0.1116
      3 C          62.6292   88.4429   11.7973 C.ar    1  UNL1        0.0908
      4 C          63.2485   89.4302   12.7417 C.ar    1  UNL1        0.1363
      5 N          63.9965   88.6618   13.7906 N.ar    1  UNL1       -0.1661
      6 N          61.7917   88.7757   10.5982 N.am    1  UNL1       -0.2766
      7 C          60.8975   87.7332    9.9953 C.2     1  UNL1        0.2706
      8 O          60.8408   86.3579   10.5914 O.2     1  UNL1       -0.2680
      9 H          61.8289   89.6783   10.2070 H       1  UNL1        0.1553
     10 C          60.0600   88.0659    8.7962 C.ar    1  UNL1        0.1765
     11 C          60.0489   89.3753    8.0644 C.ar    1  UNL1        0.0704
     12 C          59.0685   89.2663    6.9343 C.ar    1  UNL1        0.2113
     13 O          58.4738   87.8896    6.9677 O.2     1  UNL1       -0.3501
     14 N          59.0865   87.1477    8.1184 N.ar    1  UNL1       -0.0722
     15 C          58.7405   90.3447    5.9446 C.ar    1  UNL1        0.1824
     16 C          59.7309   91.1414    5.1482 C.ar    1  UNL1        0.0440
     17 C          58.9671   92.1048    4.2890 C.ar    1  UNL1        0.0439
     18 C          57.5045   91.9034    4.5542 C.ar    1  UNL1        0.1798
     19 O          57.3645   90.8156    5.5775 O.2     1  UNL1       -0.4472
     20 C          65.5505   86.3325   15.2467 C.3     1  UNL1        0.0312
     21 C          64.4248   86.0711   14.2905 C.3     1  UNL1        0.1274
     22 C          63.8842   84.6810   14.1303 C.ar    1  UNL1        0.0038
     23 C          64.3816   83.8065   13.0178 C.ar    1  UNL1       -0.0025
     24 C          63.8411   82.4165   12.8577 C.ar    1  UNL1        0.0036
     25 C          62.8031   81.9011   13.8100 C.ar    1  UNL1        0.0714
     26 C          62.3057   82.7756   14.9225 C.ar    1  UNL1        0.0074
     27 C          62.8462   84.1656   15.0827 C.ar    1  UNL1        0.0692
     28 C          62.2626   80.5110   13.6499 C.3     1  UNL1        0.4186
     29 F          61.7221   79.1210   13.4897 F       1  UNL1       -0.1659
     30 F          61.1247   80.8477   14.5674 F       1  UNL1       -0.1659
     31 F          63.4004   80.1743   12.7323 F       1  UNL1       -0.1659
     32 C          62.3488   85.0402   16.1952 C.3     1  UNL1        0.4183
     33 F          61.8515   85.9148   17.3077 F       1  UNL1       -0.1659
     34 F          63.6992   84.9809   16.8455 F       1  UNL1       -0.1659
     35 F          60.9985   85.0996   15.5449 F       1  UNL1       -0.1659
@<TRIPOS>BOND
     1    21    20    1
     2    21    22    1
     3    22    23   ar
     4    23    24   ar
     5    24    25   ar
     6    25    28    1
     7    28    29    1
     8    28    30    1
     9    28    31    1
    10    25    26   ar
    11    26    27   ar
    12    27    32    1
    13    32    33    1
    14    32    34    1
    15    32    35    1
    16    21     1    1
    17     1     2   ar
    18     2     3   ar
    19     3     6    1
    20     6     7   am
    21     7     8    2
    22     7    10    1
    23    10    11   ar
    24    11    12   ar
    25    12    15    1
    26    15    16   ar
    27    16    17   ar
    28    17    18   ar
    29    18    19   ar
    30    12    13   ar
    31    13    14   ar
    32     3     4   ar
    33     4     5   ar
    34    27    22   ar
    35     5     1   ar
    36    14    10   ar
    37    19    15   ar
    38     6     9    1
@<TRIPOS>MOLECULE
*****
 35 38 0 0 0
SMALL
GASTEIGER

@<TRIPOS>ATOM
      1 N          63.6713   86.2001   13.1391 N.ar    1  UNL1       -0.2459
      2 C          62.7350   86.2694   11.9693 C.ar    1  UNL1        0.1116
      3 C          62.4909   87.7159   11.6559 C.ar    1  UNL1        0.0908
      4 C          63.2764   88.5406   12.6321 C.ar    1  UNL1        0.1363
      5 N          64.0059   87.6037   13.5487 N.ar    1  UNL1       -0.1661
      6 N          61.6152   88.2448   10.5590 N.am    1  UNL1       -0.2766
      7 C          60.8403   87.2952    9.6943 C.2     1  UNL1        0.2706
      8 O          60.9411   85.8167    9.9265 O.2     1  UNL1       -0.2680
      9 H          61.5490   89.2152   10.4066 H       1  UNL1        0.1553
     10 C          59.9645   87.8242    8.5973 C.ar    1  UNL1        0.1765
     11 C          60.1762   89.1003    7.8379 C.ar    1  UNL1        0.0704
     12 C          59.0658   89.2346    6.8385 C.ar    1  UNL1        0.2113
     13 O          58.1677   88.0415    6.9802 O.2     1  UNL1       -0.3501
     14 N          58.7232   87.1697    8.0673 N.ar    1  UNL1       -0.0722
     15 C          58.8851   90.3637    5.8677 C.ar    1  UNL1        0.1824
     16 C          59.9833   91.1215    5.1824 C.ar    1  UNL1        0.0440
     17 C          59.3514   92.1594    4.3030 C.ar    1  UNL1        0.0439
     18 C          57.8627   92.0432    4.4449 C.ar    1  UNL1        0.1798
     19 O          57.5745   90.9334    5.4120 O.2     1  UNL1       -0.4472
     20 C          65.5538   84.9232   14.3943 C.3     1  UNL1        0.0312
     21 C          64.1831   84.9471   13.7858 C.3     1  UNL1        0.1274
     22 C          63.3240   83.7180   13.8238 C.ar    1  UNL1        0.0038
     23 C          62.4591   83.4442   15.0183 C.ar    1  UNL1       -0.0025
     24 C          61.6001   82.2152   15.0564 C.ar    1  UNL1        0.0036
     25 C          61.6060   81.2599   13.8999 C.ar    1  UNL1        0.0714
     26 C          62.4710   81.5337   12.7054 C.ar    1  UNL1        0.0074
     27 C          63.3300   82.7627   12.6674 C.ar    1  UNL1        0.0692
     28 C          60.7470   80.0308   13.9380 C.3     1  UNL1        0.4186
     29 F          59.8879   78.8018   13.9761 F       1  UNL1       -0.1659
     30 F          61.9323   79.1907   13.5649 F       1  UNL1       -0.1659
     31 F          59.5616   80.8709   14.3111 F       1  UNL1       -0.1659
     32 C          64.1950   83.0366   11.4729 C.3     1  UNL1        0.4183
     33 F          65.0600   83.3103   10.2784 F       1  UNL1       -0.1659
     34 F          65.3537   82.3780   12.1611 F       1  UNL1       -0.1659
     35 F          63.0363   83.6951   10.7847 F       1  UNL1       -0.1659
@<TRIPOS>BOND
     1    21    20    1
     2    21    22    1
     3    22    23   ar
     4    23    24   ar
     5    24    25   ar
     6    25    28    1
     7    28    29    1
     8    28    30    1
     9    28    31    1
    10    25    26   ar
    11    26    27   ar
    12    27    32    1
    13    32    33    1
    14    32    34    1
    15    32    35    1
    16    21     1    1
    17     1     2   ar
    18     2     3   ar
    19     3     6    1
    20     6     7   am
    21     7     8    2
    22     7    10    1
    23    10    11   ar
    24    11    12   ar
    25    12    15    1
    26    15    16   ar
    27    16    17   ar
    28    17    18   ar
    29    18    19   ar
    30    12    13   ar
    31    13    14   ar
    32     3     4   ar
    33     4     5   ar
    34    27    22   ar
    35     5     1   ar
    36    14    10   ar
    37    19    15   ar
    38     6     9    1
@<TRIPOS>MOLECULE
*****
 35 38 0 0 0
SMALL
GASTEIGER

@<TRIPOS>ATOM
      1 N          63.5207   89.8561   12.8815 N.ar    1  UNL1       -0.2459
      2 C          63.8471   88.4061   13.0842 C.ar    1  UNL1        0.1116
      3 C          62.8538   87.5942   12.3070 C.ar    1  UNL1        0.0908
      4 C          61.9134   88.5424   11.6239 C.ar    1  UNL1        0.1363
      5 N          62.3256   89.9403   11.9790 N.ar    1  UNL1       -0.1661
      6 N          62.8087   86.0970   12.2269 N.am    1  UNL1       -0.2766
      7 C          63.0713   85.2723   13.4519 C.2     1  UNL1        0.2706
      8 O          63.3789   85.9447   14.7571 O.2     1  UNL1       -0.2680
      9 H          62.6069   85.6557   11.3703 H       1  UNL1        0.1553
     10 C          63.0263   83.7751   13.3719 C.ar    1  UNL1        0.1765
     11 C          62.9497   82.9613   12.1141 C.ar    1  UNL1        0.0704
     12 C          62.9260   81.5121   12.5005 C.ar    1  UNL1        0.2113
     13 O          62.9880   81.4302   13.9970 O.2     1  UNL1       -0.3501
     14 N          63.0499   82.8289   14.5356 N.ar    1  UNL1       -0.0722
     15 C          62.8532   80.3490   11.5561 C.ar    1  UNL1        0.1824
     16 C          63.0088   80.4123   10.0656 C.ar    1  UNL1        0.0440
     17 C          62.8638   79.0209    9.5248 C.ar    1  UNL1        0.0439
     18 C          62.6184   78.0974   10.6810 C.ar    1  UNL1        0.1798
     19 O          62.6119   78.9182   11.9365 O.2     1  UNL1       -0.4472
     20 C          64.2515   91.2305   14.9616 C.3     1  UNL1        0.0312
     21 C          64.2596   91.0178   13.4768 C.3     1  UNL1        0.1274
     22 C          65.0066   91.9669   12.5872 C.ar    1  UNL1        0.0038
     23 C          64.5015   92.2536   11.2043 C.ar    1  UNL1       -0.0025
     24 C          65.2486   93.2026   10.3148 C.ar    1  UNL1        0.0036
     25 C          66.5007   93.8649   10.8083 C.ar    1  UNL1        0.0714
     26 C          67.0058   93.5782   12.1912 C.ar    1  UNL1        0.0074
     27 C          66.2587   92.6292   13.0807 C.ar    1  UNL1        0.0692
     28 C          67.2477   94.8140    9.9187 C.3     1  UNL1        0.4186
     29 F          67.9947   95.7631    9.0292 F       1  UNL1       -0.1659
     30 F          67.5417   93.6916    8.9681 F       1  UNL1       -0.1659
     31 F          66.9537   95.9364   10.8694 F       1  UNL1       -0.1659
     32 C          66.7638   92.3424   14.4638 C.3     1  UNL1        0.4183
     33 F          67.2689   92.0556   15.8467 F       1  UNL1       -0.1659
     34 F          67.3476   91.0474   13.9820 F       1  UNL1       -0.1659
     35 F          66.1800   93.6374   14.9455 F       1  UNL1       -0.1659
@<TRIPOS>BOND
     1    21    20    1
     2    21    22    1
     3    22    23   ar
     4    23    24   ar
     5    24    25   ar
     6    25    28    1
     7    28    29    1
     8    28    30    1
     9    28    31    1
    10    25    26   ar
    11    26    27   ar
    12    27    32    1
    13    32    33    1
    14    32    34    1
    15    32    35    1
    16    21     1    1
    17     1     2   ar
    18     2     3   ar
    19     3     6    1
    20     6     7   am
    21     7     8    2
    22     7    10    1
    23    10    11   ar
    24    11    12   ar
    25    12    15    1
    26    15    16   ar
    27    16    17   ar
    28    17    18   ar
    29    18    19   ar
    30    12    13   ar
    31    13    14   ar
    32     3     4   ar
    33     4     5   ar
    34    27    22   ar
    35     5     1   ar
    36    14    10   ar
    37    19    15   ar
    38     6     9    1
@<TRIPOS>MOLECULE
*****
 35 38 0 0 0
SMALL
GASTEIGER

@<TRIPOS>ATOM
      1 N          64.5009   90.5097   15.4224 N.ar    1  UNL1       -0.2459
      2 C          64.5994   89.2821   14.5660 C.ar    1  UNL1        0.1116
      3 C          63.7342   88.2200   15.1770 C.ar    1  UNL1        0.0908
      4 C          63.1009   88.7912   16.4110 C.ar    1  UNL1        0.1363
      5 N          63.5748   90.2063   16.5627 N.ar    1  UNL1       -0.1661
      6 N          63.5368   86.8308   14.6470 N.am    1  UNL1       -0.2766
      7 C          63.2566   86.6171   13.1890 C.2     1  UNL1        0.2706
      8 O          63.1738   87.7926   12.2610 O.2     1  UNL1       -0.2680
      9 H          63.5912   86.0592   15.2561 H       1  UNL1        0.1553
     10 C          63.0593   85.2278   12.6590 C.ar    1  UNL1        0.1765
     11 C          62.7199   84.0138   13.4721 C.ar    1  UNL1        0.0704
     12 C          62.6176   82.8443   12.5384 C.ar    1  UNL1        0.2113
     13 O          62.8937   83.3354   11.1482 O.2     1  UNL1       -0.3501
     14 N          63.1668   84.8086   11.2227 N.ar    1  UNL1       -0.0722
     15 C          62.2957   81.4317   12.9267 C.ar    1  UNL1        0.1824
     16 C          61.3535   81.0092   14.0147 C.ar    1  UNL1        0.0440
     17 C          61.3349   79.5100   14.0556 C.ar    1  UNL1        0.0439
     18 C          62.2656   79.0057   12.9928 C.ar    1  UNL1        0.1798
     19 O          62.8594   80.1934   12.2951 O.2     1  UNL1       -0.4472
     20 C          65.3228   92.8174   16.2879 C.3     1  UNL1        0.0312
     21 C          65.2050   91.8120   15.1810 C.3     1  UNL1        0.1274
     22 C          65.7912   92.1090   13.8325 C.ar    1  UNL1        0.0038
     23 C          64.9011   92.1820   12.6274 C.ar    1  UNL1       -0.0025
     24 C          65.4873   92.4789   11.2790 C.ar    1  UNL1        0.0036
     25 C          66.9636   92.7028   11.1358 C.ar    1  UNL1        0.0714
     26 C          67.8537   92.6297   12.3409 C.ar    1  UNL1        0.0074
     27 C          67.2675   92.3328   13.6893 C.ar    1  UNL1        0.0692
     28 C          67.5498   92.9997    9.7873 C.3     1  UNL1        0.4186
     29 F          68.1360   93.2966    8.4389 F       1  UNL1       -0.1659
     30 F          66.6357   94.1810    9.6500 F       1  UNL1       -0.1659
     31 F          68.4639   91.8184    9.9246 F       1  UNL1       -0.1659
     32 C          68.1575   92.2597   14.8945 C.3     1  UNL1        0.4183
     33 F          69.0476   92.1867   16.0997 F       1  UNL1       -0.1659
     34 F          68.3332   93.7488   14.8550 F       1  UNL1       -0.1659
     35 F          67.9818   90.7706   14.9340 F       1  UNL1       -0.1659
@<TRIPOS>BOND
     1    21    20    1
     2    21    22    1
     3    22    23   ar
     4    23    24   ar
     5    24    25   ar
     6    25    28    1
     7    28    29    1
     8    28    30    1
     9    28    31    1
    10    25    26   ar
    11    26    27   ar
    12    27    32    1
    13    32    33    1
    14    32    34    1
    15    32    35    1
    16    21     1    1
    17     1     2   ar
    18     2     3   ar
    19     3     6    1
    20     6     7   am
    21     7     8    2
    22     7    10    1
    23    10    11   ar
    24    11    12   ar
    25    12    15    1
    26    15    16   ar
    27    16    17   ar
    28    17    18   ar
    29    18    19   ar
    30    12    13   ar
    31    13    14   ar
    32     3     4   ar
    33     4     5   ar
    34    27    22   ar
    35     5     1   ar
    36    14    10   ar
    37    19    15   ar
    38     6     9    1
@<TRIPOS>MOLECULE
*****
 35 38 0 0 0
SMALL
GASTEIGER

@<TRIPOS>ATOM
      1 N          62.7988   94.7990   -0.0572 N.ar    1  UNL1       -0.2459
      2 C          61.7212   94.0338    0.6521 C.ar    1  UNL1        0.1116
      3 C          62.3604   93.2555    1.7637 C.ar    1  UNL1        0.0908
      4 C          63.8331   93.5396    1.7414 C.ar    1  UNL1        0.1363
      5 N          64.1040   94.4936    0.6160 N.ar    1  UNL1       -0.1661
      6 N          61.6513   92.3517    2.7283 N.am    1  UNL1       -0.2766
      7 C          60.3644   92.7917    3.3608 C.2     1  UNL1        0.2706
      8 O          59.7864   94.1355    3.0287 O.2     1  UNL1       -0.2680
      9 H          62.0307   91.4697    2.9463 H       1  UNL1        0.1553
     10 C          59.6553   91.8879    4.3254 C.ar    1  UNL1        0.1765
     11 C          60.3014   90.8692    5.2169 C.ar    1  UNL1        0.0704
     12 C          59.2210   90.1958    6.0103 C.ar    1  UNL1        0.2113
     13 O          57.9073   90.7984    5.6091 O.2     1  UNL1       -0.3501
     14 N          58.1756   91.8442    4.5677 N.ar    1  UNL1       -0.0722
     15 C          59.4196   89.1105    7.0264 C.ar    1  UNL1        0.1824
     16 C          60.0458   89.2734    8.3796 C.ar    1  UNL1        0.0440
     17 C          60.0401   87.9353    9.0573 C.ar    1  UNL1        0.0439
     18 C          59.4103   86.9452    8.1229 C.ar    1  UNL1        0.1798
     19 O          59.0268   87.6715    6.8677 O.2     1  UNL1       -0.4472
     20 C          61.6415   96.8556   -1.1439 C.3     1  UNL1        0.0312
     21 C          62.6053   95.7097   -1.2333 C.3     1  UNL1        0.1274
     22 C          63.3756   95.4745   -2.4988 C.ar    1  UNL1        0.0038
     23 C          64.6765   96.1852   -2.7280 C.ar    1  UNL1       -0.0025
     24 C          65.4467   95.9500   -3.9935 C.ar    1  UNL1        0.0036
     25 C          64.9160   95.0041   -5.0297 C.ar    1  UNL1        0.0714
     26 C          63.6151   94.2935   -4.8004 C.ar    1  UNL1        0.0074
     27 C          62.8449   94.5287   -3.5350 C.ar    1  UNL1        0.0692
     28 C          65.6863   94.7689   -6.2952 C.3     1  UNL1        0.4186
     29 F          66.4566   94.5337   -7.5606 F       1  UNL1       -0.1659
     30 F          66.4953   96.0044   -6.0324 F       1  UNL1       -0.1659
     31 F          64.8774   93.5334   -6.5579 F       1  UNL1       -0.1659
     32 C          61.5440   93.8180   -3.3057 C.3     1  UNL1        0.4183
     33 F          60.2431   93.1073   -3.0764 F       1  UNL1       -0.1659
     34 F          62.2638   92.7473   -2.5406 F       1  UNL1       -0.1659
     35 F          60.8241   94.8887   -4.0707 F       1  UNL1       -0.1659
@<TRIPOS>BOND
     1    21    20    1
     2    21    22    1
     3    22    23   ar
     4    23    24   ar
     5    24    25   ar
     6    25    28    1
     7    28    29    1
     8    28    30    1
     9    28    31    1
    10    25    26   ar
    11    26    27   ar
    12    27    32    1
    13    32    33    1
    14    32    34    1
    15    32    35    1
    16    21     1    1
    17     1     2   ar
    18     2     3   ar
    19     3     6    1
    20     6     7   am
    21     7     8    2
    22     7    10    1
    23    10    11   ar
    24    11    12   ar
    25    12    15    1
    26    15    16   ar
    27    16    17   ar
    28    17    18   ar
    29    18    19   ar
    30    12    13   ar
    31    13    14   ar
    32     3     4   ar
    33     4     5   ar
    34    27    22   ar
    35     5     1   ar
    36    14    10   ar
    37    19    15   ar
    38     6     9    1
