@<TRIPOS>MOLECULE
*****
 37 39 0 0 0
SMALL
GASTEIGER

@<TRIPOS>ATOM
      1 S          61.7729   89.1062   11.4324 S.O2    1  UNL1        0.0455
      2 O          62.5429   88.7181   10.2050 O.2     1  UNL1       -0.1572
      3 O          61.0029   89.4942   12.6598 O.2     1  UNL1       -0.1572
      4 N          62.8424   90.0951   11.7906 N.3     1  UNL1       -0.1592
      5 C          63.3986   90.1267   13.1833 C.3     1  UNL1        0.0979
      6 C          64.4681   91.1156   13.5414 C.3     1  UNL1        0.0487
      7 C          64.9813   92.0728   12.5069 C.3     1  UNL1        0.1186
      8 C          64.4251   92.0412   11.1142 C.3     1  UNL1        0.0487
      9 C          63.3557   91.0523   10.7561 C.3     1  UNL1        0.0979
     10 O          66.0509   93.0618   12.8651 O.3     1  UNL1       -0.3514
     11 C          67.1681   93.3394   11.9035 C.3     1  UNL1        0.1693
     12 C          66.9306   94.2186   10.7116 C.ar    1  UNL1        0.0179
     13 C          66.0908   95.4541   10.8463 C.ar    1  UNL1       -0.0001
     14 C          65.8534   96.3332    9.6544 C.ar    1  UNL1        0.0112
     15 C          66.4558   95.9768    8.3277 C.ar    1  UNL1        0.0585
     16 CL         66.2183   96.8560    7.1357 Cl      1  UNL1       -0.0822
     17 C          67.2956   94.7413    8.1929 C.ar    1  UNL1        0.0225
     18 C          67.5330   93.8622    9.3849 C.ar    1  UNL1        0.0569
     19 CL         68.3728   92.6266    9.2502 Cl      1  UNL1       -0.0825
     20 C          60.7035   88.1173   11.0742 C.3     1  UNL1        0.1895
     21 C          60.1064   88.1238    9.6981 C.3     1  UNL1        0.1104
     22 C          60.0388   89.6219    9.7346 C.3     1  UNL1        0.0243
     23 N          59.5093   88.1304    8.3221 N.am    1  UNL1       -0.1662
     24 O          58.6605   86.9802    7.8674 O.3     1  UNL1       -0.2915
     25 C          59.7610   89.2870    7.4008 C.2     1  UNL1        0.3267
     26 O          59.1640   89.2935    6.0248 O.2     1  UNL1       -0.2627
     27 H          58.5992   86.3228    8.5780 H       1  UNL1        0.2417
     28 C          60.1740   86.6258    9.6617 C.3     1  UNL1        0.0300
     29 C          61.9955   85.9705    7.9289 C.3     1  UNL1        0.0080
     30 C          61.4673   85.9411    9.3326 C.3     1  UNL1        0.0603
     31 C          62.2326   85.2270   10.4070 C.ar    1  UNL1        0.1390
     32 N          62.0083   85.5792   11.8478 N.ar    1  UNL1       -0.2268
     33 C          62.7736   84.8651   12.9223 C.ar    1  UNL1        0.1314
     34 C          63.7631   83.7988   12.5559 C.ar    1  UNL1        0.1783
     35 F          64.5283   83.0847   13.6304 F       1  UNL1       -0.2009
     36 C          63.9872   83.4467   11.1152 C.ar    1  UNL1        0.1314
     37 N          63.2220   84.1608   10.0408 N.ar    1  UNL1       -0.2268
@<TRIPOS>BOND
     1    30    29    1
     2    30    28    1
     3    28    21    1
     4    21    22    1
     5    21    20    1
     6    20     1    1
     7     1     2    2
     8     1     3    2
     9     1     4    1
    10     4     5    1
    11     5     6    1
    12     6     7    1
    13     7    10    1
    14    10    11    1
    15    11    12    1
    16    12    13   ar
    17    13    14   ar
    18    14    15   ar
    19    15    16    1
    20    15    17   ar
    21    17    18   ar
    22    18    19    1
    23     7     8    1
    24     8     9    1
    25    21    23    1
    26    23    24    1
    27    23    25   am
    28    25    26    2
    29    30    31    1
    30    31    32   ar
    31    32    33   ar
    32    33    34   ar
    33    34    35    1
    34    34    36   ar
    35    36    37   ar
    36     9     4    1
    37    37    31   ar
    38    18    12   ar
    39    24    27    1
@<TRIPOS>MOLECULE
*****
 37 39 0 0 0
SMALL
GASTEIGER

@<TRIPOS>ATOM
      1 S          63.9292   89.7095   15.2319 S.O2    1  UNL1        0.0455
      2 O          65.4009   89.6127   14.9588 O.2     1  UNL1       -0.1572
      3 O          62.4575   89.8062   15.5051 O.2     1  UNL1       -0.1572
      4 N          63.8452   88.2138   15.3088 N.3     1  UNL1       -0.1592
      5 C          63.2727   87.5565   16.5296 C.3     1  UNL1        0.0979
      6 C          63.1887   86.0609   16.6064 C.3     1  UNL1        0.0487
      7 C          63.6772   85.2225   15.4625 C.3     1  UNL1        0.1186
      8 C          64.2496   85.8797   14.2417 C.3     1  UNL1        0.0487
      9 C          64.3336   87.3754   14.1649 C.3     1  UNL1        0.0979
     10 O          63.5931   83.7268   15.5394 O.3     1  UNL1       -0.3514
     11 C          62.4063   83.0117   14.9649 C.3     1  UNL1        0.1693
     12 C          62.5562   82.1914   13.7179 C.ar    1  UNL1        0.0179
     13 C          62.5836   80.6942   13.8039 C.ar    1  UNL1       -0.0001
     14 C          62.7335   79.8740   12.5570 C.ar    1  UNL1        0.0112
     15 C          62.8559   80.5511   11.2241 C.ar    1  UNL1        0.0585
     16 CL         63.0058   79.7308    9.9772 Cl      1  UNL1       -0.0822
     17 C          62.8285   82.0483   11.1381 C.ar    1  UNL1        0.0225
     18 C          62.6786   82.8685   12.3850 C.ar    1  UNL1        0.0569
     19 CL         62.6512   84.3658   12.2991 Cl      1  UNL1       -0.0825
     20 C          64.0132   91.2051   15.1550 C.3     1  UNL1        0.1895
     21 C          65.3327   91.8698   14.8959 C.3     1  UNL1        0.1104
     22 C          65.2550   92.5453   16.2329 C.3     1  UNL1        0.0243
     23 N          66.6522   92.5345   14.6367 N.am    1  UNL1       -0.1662
     24 O          66.7467   94.0315   14.6163 O.3     1  UNL1       -0.2915
     25 C          67.8771   91.7024   14.3980 C.2     1  UNL1        0.3267
     26 O          69.1966   92.3671   14.1388 O.2     1  UNL1       -0.2627
     27 H          65.8714   94.4130   14.7871 H       1  UNL1        0.2417
     28 C          65.4104   91.1943   13.5588 C.3     1  UNL1        0.0300
     29 C          63.4058   91.5783   11.9513 C.3     1  UNL1        0.0080
     30 C          64.8251   91.8584   12.3479 C.3     1  UNL1        0.0603
     31 C          65.6590   92.8025   11.5336 C.ar    1  UNL1        0.1390
     32 N          65.5950   94.2779   11.7971 N.ar    1  UNL1       -0.2268
     33 C          66.4290   95.2220   10.9828 C.ar    1  UNL1        0.1314
     34 C          67.3269   94.6909    9.9049 C.ar    1  UNL1        0.1783
     35 F          68.1608   95.6350    9.0906 F       1  UNL1       -0.2009
     36 C          67.3909   93.2156    9.6415 C.ar    1  UNL1        0.1314
     37 N          66.5569   92.2714   10.4558 N.ar    1  UNL1       -0.2268
@<TRIPOS>BOND
     1    30    29    1
     2    30    28    1
     3    28    21    1
     4    21    22    1
     5    21    20    1
     6    20     1    1
     7     1     2    2
     8     1     3    2
     9     1     4    1
    10     4     5    1
    11     5     6    1
    12     6     7    1
    13     7    10    1
    14    10    11    1
    15    11    12    1
    16    12    13   ar
    17    13    14   ar
    18    14    15   ar
    19    15    16    1
    20    15    17   ar
    21    17    18   ar
    22    18    19    1
    23     7     8    1
    24     8     9    1
    25    21    23    1
    26    23    24    1
    27    23    25   am
    28    25    26    2
    29    30    31    1
    30    31    32   ar
    31    32    33   ar
    32    33    34   ar
    33    34    35    1
    34    34    36   ar
    35    36    37   ar
    36     9     4    1
    37    37    31   ar
    38    18    12   ar
    39    24    27    1
@<TRIPOS>MOLECULE
*****
 37 39 0 0 0
SMALL
GASTEIGER

@<TRIPOS>ATOM
      1 S          64.2519   84.5124   14.7601 S.O2    1  UNL1        0.0455
      2 O          65.4060   84.9989   13.9347 O.2     1  UNL1       -0.1572
      3 O          63.0977   84.0259   15.5854 O.2     1  UNL1       -0.1572
      4 N          63.9625   85.9214   15.1858 N.3     1  UNL1       -0.1592
      5 C          63.3297   86.1869   16.5195 C.3     1  UNL1        0.0979
      6 C          63.0403   87.5958   16.9452 C.3     1  UNL1        0.0487
      7 C          63.3838   88.7392   16.0371 C.3     1  UNL1        0.1186
      8 C          64.0166   88.4737   14.7033 C.3     1  UNL1        0.0487
      9 C          64.3060   87.0648   14.2777 C.3     1  UNL1        0.0979
     10 O          63.0944   90.1481   16.4628 O.3     1  UNL1       -0.3514
     11 C          64.1779   91.1843   16.4128 C.3     1  UNL1        0.1693
     12 C          64.7441   91.6143   15.0920 C.ar    1  UNL1        0.0179
     13 C          64.0129   91.2932   13.8222 C.ar    1  UNL1       -0.0001
     14 C          64.5792   91.7232   12.5015 C.ar    1  UNL1        0.0112
     15 C          65.8766   92.4743   12.4505 C.ar    1  UNL1        0.0585
     16 CL         66.4428   92.9043   11.1296 Cl      1  UNL1       -0.0822
     17 C          66.6077   92.7954   13.7202 C.ar    1  UNL1        0.0225
     18 C          66.0415   92.3654   15.0409 C.ar    1  UNL1        0.0569
     19 CL         66.7727   92.6865   16.3108 Cl      1  UNL1       -0.0825
     20 C          64.5413   83.1035   14.3343 C.3     1  UNL1        0.1895
     21 C          63.4152   82.1891   13.9525 C.3     1  UNL1        0.1104
     22 C          64.0588   81.0748   14.7233 C.3     1  UNL1        0.0243
     23 N          62.2892   81.2746   13.5707 N.am    1  UNL1       -0.1662
     24 O          62.4660   80.2953   12.4483 O.3     1  UNL1       -0.2915
     25 C          60.9863   81.3395   14.3112 C.2     1  UNL1        0.3267
     26 O          59.8603   80.4251   13.9294 O.2     1  UNL1       -0.2627
     27 H          63.3591   80.3832   12.0802 H       1  UNL1        0.2417
     28 C          62.7716   83.3034   13.1818 C.3     1  UNL1        0.0300
     29 C          64.2436   82.7306   11.1190 C.3     1  UNL1        0.0080
     30 C          63.2182   83.6023   11.7814 C.3     1  UNL1        0.0603
     31 C          62.6393   84.7729   11.0433 C.ar    1  UNL1        0.1390
     32 N          61.7633   85.7548   11.7634 N.ar    1  UNL1       -0.2268
     33 C          61.1845   86.9254   11.0253 C.ar    1  UNL1        0.1314
     34 C          61.4817   87.1140    9.5671 C.ar    1  UNL1        0.1783
     35 F          60.9028   88.2845    8.8290 F       1  UNL1       -0.2009
     36 C          62.3576   86.1320    8.8471 C.ar    1  UNL1        0.1314
     37 N          62.9365   84.9615    9.5852 N.ar    1  UNL1       -0.2268
@<TRIPOS>BOND
     1    30    29    1
     2    30    28    1
     3    28    21    1
     4    21    22    1
     5    21    20    1
     6    20     1    1
     7     1     2    2
     8     1     3    2
     9     1     4    1
    10     4     5    1
    11     5     6    1
    12     6     7    1
    13     7    10    1
    14    10    11    1
    15    11    12    1
    16    12    13   ar
    17    13    14   ar
    18    14    15   ar
    19    15    16    1
    20    15    17   ar
    21    17    18   ar
    22    18    19    1
    23     7     8    1
    24     8     9    1
    25    21    23    1
    26    23    24    1
    27    23    25   am
    28    25    26    2
    29    30    31    1
    30    31    32   ar
    31    32    33   ar
    32    33    34   ar
    33    34    35    1
    34    34    36   ar
    35    36    37   ar
    36     9     4    1
    37    37    31   ar
    38    18    12   ar
    39    24    27    1
@<TRIPOS>MOLECULE
*****
 37 39 0 0 0
SMALL
GASTEIGER

@<TRIPOS>ATOM
      1 S          61.8777   88.6454   11.1128 S.O2    1  UNL1        0.0455
      2 O          61.3393   88.4979   12.5051 O.2     1  UNL1       -0.1572
      3 O          62.4160   88.7930    9.7206 O.2     1  UNL1       -0.1572
      4 N          62.7847   89.7450   11.5802 N.3     1  UNL1       -0.1592
      5 C          63.3225   89.7294   12.9803 C.3     1  UNL1        0.0979
      6 C          64.2295   90.8289   13.4476 C.3     1  UNL1        0.0487
      7 C          64.5987   91.9440   12.5147 C.3     1  UNL1        0.1186
      8 C          64.0609   91.9596   11.1146 C.3     1  UNL1        0.0487
      9 C          63.1539   90.8601   10.6473 C.3     1  UNL1        0.0979
     10 O          65.5057   93.0436   12.9821 O.3     1  UNL1       -0.3514
     11 C          66.7890   93.3171   12.2553 C.3     1  UNL1        0.1693
     12 C          66.7909   94.2011   11.0434 C.ar    1  UNL1        0.0179
     13 C          66.1878   95.5726   11.1146 C.ar    1  UNL1       -0.0001
     14 C          66.1898   96.4566    9.9028 C.ar    1  UNL1        0.0112
     15 C          66.7948   95.9690    8.6197 C.ar    1  UNL1        0.0585
     16 CL         66.7967   96.8530    7.4079 Cl      1  UNL1       -0.0822
     17 C          67.3979   94.5974    8.5485 C.ar    1  UNL1        0.0225
     18 C          67.3960   93.7135    9.7603 C.ar    1  UNL1        0.0569
     19 CL         67.9991   92.3419    9.6892 Cl      1  UNL1       -0.0825
     20 C          60.9707   87.5460   10.6456 C.3     1  UNL1        0.1895
     21 C          61.3778   86.6768    9.4928 C.3     1  UNL1        0.1104
     22 C          60.1597   87.1130    8.7338 C.3     1  UNL1        0.0243
     23 N          61.7849   85.8077    8.3400 N.am    1  UNL1       -0.1662
     24 O          63.2305   85.4651    8.1329 O.3     1  UNL1       -0.2915
     25 C          60.7464   85.2812    7.3944 C.2     1  UNL1        0.3267
     26 O          61.1536   84.4120    6.2416 O.2     1  UNL1       -0.2627
     27 H          63.7644   85.8826    8.8269 H       1  UNL1        0.2417
     28 C          62.5958   86.2407   10.2518 C.3     1  UNL1        0.0300
     29 C          62.0734   83.7180   10.5883 C.3     1  UNL1        0.0080
     30 C          62.5333   85.0344   11.1412 C.3     1  UNL1        0.0603
     31 C          62.9305   85.1445   12.5834 C.ar    1  UNL1        0.1390
     32 N          63.6809   86.3510   13.0646 N.ar    1  UNL1       -0.2268
     33 C          64.0782   86.4611   14.5069 C.ar    1  UNL1        0.1314
     34 C          63.7251   85.3648   15.4679 C.ar    1  UNL1        0.1783
     35 F          64.1224   85.4749   16.9101 F       1  UNL1       -0.2009
     36 C          62.9747   84.1584   14.9866 C.ar    1  UNL1        0.1314
     37 N          62.5775   84.0483   13.5444 N.ar    1  UNL1       -0.2268
@<TRIPOS>BOND
     1    30    29    1
     2    30    28    1
     3    28    21    1
     4    21    22    1
     5    21    20    1
     6    20     1    1
     7     1     2    2
     8     1     3    2
     9     1     4    1
    10     4     5    1
    11     5     6    1
    12     6     7    1
    13     7    10    1
    14    10    11    1
    15    11    12    1
    16    12    13   ar
    17    13    14   ar
    18    14    15   ar
    19    15    16    1
    20    15    17   ar
    21    17    18   ar
    22    18    19    1
    23     7     8    1
    24     8     9    1
    25    21    23    1
    26    23    24    1
    27    23    25   am
    28    25    26    2
    29    30    31    1
    30    31    32   ar
    31    32    33   ar
    32    33    34   ar
    33    34    35    1
    34    34    36   ar
    35    36    37   ar
    36     9     4    1
    37    37    31   ar
    38    18    12   ar
    39    24    27    1
@<TRIPOS>MOLECULE
*****
 37 39 0 0 0
SMALL
GASTEIGER

@<TRIPOS>ATOM
      1 S          64.1171   89.8647   15.3221 S.O2    1  UNL1        0.0455
      2 O          65.4166   89.5490   14.6427 O.2     1  UNL1       -0.1572
      3 O          62.8175   90.1803   16.0014 O.2     1  UNL1       -0.1572
      4 N          63.8709   88.3999   15.5318 N.3     1  UNL1       -0.1592
      5 C          64.4659   87.3968   14.5885 C.3     1  UNL1        0.0979
      6 C          64.2198   85.9321   14.7983 C.3     1  UNL1        0.0487
      7 C          63.3787   85.4705   15.9513 C.3     1  UNL1        0.1186
      8 C          62.7837   86.4736   16.8946 C.3     1  UNL1        0.0487
      9 C          63.0298   87.9383   16.6848 C.3     1  UNL1        0.0979
     10 O          63.1326   84.0057   16.1611 O.3     1  UNL1       -0.3514
     11 C          62.3811   83.2164   15.1305 C.3     1  UNL1        0.1693
     12 C          62.7448   83.3382   13.6803 C.ar    1  UNL1        0.0179
     13 C          62.3285   84.5511   12.9020 C.ar    1  UNL1       -0.0001
     14 C          62.6922   84.6729   11.4520 C.ar    1  UNL1        0.0112
     15 C          63.4722   83.5819   10.7801 C.ar    1  UNL1        0.0585
     16 CL         63.8359   83.7038    9.3299 Cl      1  UNL1       -0.0822
     17 C          63.8885   82.3691   11.5584 C.ar    1  UNL1        0.0225
     18 C          63.5247   82.2472   13.0085 C.ar    1  UNL1        0.0569
     19 CL         63.9410   81.0343   13.7868 Cl      1  UNL1       -0.0825
     20 C          64.3632   91.3294   15.1123 C.3     1  UNL1        0.1895
     21 C          65.7675   91.8474   15.0140 C.3     1  UNL1        0.1104
     22 C          65.6625   92.3963   16.4060 C.3     1  UNL1        0.0243
     23 N          67.1718   92.3654   14.9157 N.am    1  UNL1       -0.1662
     24 O          68.1369   91.7383   13.9537 O.3     1  UNL1       -0.2915
     25 C          67.6110   93.5104   15.7794 C.2     1  UNL1        0.3267
     26 O          69.0153   94.0284   15.6811 O.2     1  UNL1       -0.2627
     27 H          67.6960   91.0177   13.4769 H       1  UNL1        0.2417
     28 C          65.8726   91.2984   13.6220 C.3     1  UNL1        0.0300
     29 C          63.7627   91.4540   12.1139 C.3     1  UNL1        0.0080
     30 C          65.1238   91.9530   12.4992 C.3     1  UNL1        0.0603
     31 C          65.7361   93.1067   11.7615 C.ar    1  UNL1        0.1390
     32 N          65.8347   94.4508   12.4203 N.ar    1  UNL1       -0.2268
     33 C          66.4470   95.6044   11.6827 C.ar    1  UNL1        0.1314
     34 C          66.9607   95.4141   10.2863 C.ar    1  UNL1        0.1783
     35 F          67.5731   96.5677    9.5486 F       1  UNL1       -0.2009
     36 C          66.8622   94.0701    9.6276 C.ar    1  UNL1        0.1314
     37 N          66.2499   92.9164   10.3652 N.ar    1  UNL1       -0.2268
@<TRIPOS>BOND
     1    30    29    1
     2    30    28    1
     3    28    21    1
     4    21    22    1
     5    21    20    1
     6    20     1    1
     7     1     2    2
     8     1     3    2
     9     1     4    1
    10     4     5    1
    11     5     6    1
    12     6     7    1
    13     7    10    1
    14    10    11    1
    15    11    12    1
    16    12    13   ar
    17    13    14   ar
    18    14    15   ar
    19    15    16    1
    20    15    17   ar
    21    17    18   ar
    22    18    19    1
    23     7     8    1
    24     8     9    1
    25    21    23    1
    26    23    24    1
    27    23    25   am
    28    25    26    2
    29    30    31    1
    30    31    32   ar
    31    32    33   ar
    32    33    34   ar
    33    34    35    1
    34    34    36   ar
    35    36    37   ar
    36     9     4    1
    37    37    31   ar
    38    18    12   ar
    39    24    27    1
@<TRIPOS>MOLECULE
*****
 37 39 0 0 0
SMALL
GASTEIGER

@<TRIPOS>ATOM
      1 S          63.8437   89.5875   15.4700 S.O2    1  UNL1        0.0455
      2 O          65.2580   89.4983   14.9784 O.2     1  UNL1       -0.1572
      3 O          62.4294   89.6766   15.9616 O.2     1  UNL1       -0.1572
      4 N          63.7570   88.0901   15.4920 N.3     1  UNL1       -0.1592
      5 C          64.3000   87.2905   14.3450 C.3     1  UNL1        0.0979
      6 C          64.2133   85.7932   14.3670 C.3     1  UNL1        0.0487
      7 C          63.5836   85.0955   15.5361 C.3     1  UNL1        0.1186
      8 C          63.0406   85.8951   16.6831 C.3     1  UNL1        0.0487
      9 C          63.1273   87.3924   16.6611 C.3     1  UNL1        0.0979
     10 O          63.4969   83.5981   15.5581 O.3     1  UNL1       -0.3514
     11 C          62.3174   82.9060   14.9419 C.3     1  UNL1        0.1693
     12 C          62.4934   82.0902   13.6955 C.ar    1  UNL1        0.0179
     13 C          62.5016   80.5923   13.7744 C.ar    1  UNL1       -0.0001
     14 C          62.6776   79.7766   12.5280 C.ar    1  UNL1        0.0112
     15 C          62.8455   80.4588   11.2027 C.ar    1  UNL1        0.0585
     16 CL         63.0215   79.6430    9.9562 Cl      1  UNL1       -0.0822
     17 C          62.8374   81.9567   11.1238 C.ar    1  UNL1        0.0225
     18 C          62.6613   82.7724   12.3702 C.ar    1  UNL1        0.0569
     19 CL         62.6532   84.2703   12.2913 Cl      1  UNL1       -0.0825
     20 C          63.9304   91.0848   15.4479 C.3     1  UNL1        0.1895
     21 C          65.2438   91.7560   15.1750 C.3     1  UNL1        0.1104
     22 C          65.1735   92.4364   16.5099 C.3     1  UNL1        0.0243
     23 N          66.5571   92.4273   14.9020 N.am    1  UNL1       -0.1662
     24 O          66.6678   93.9209   14.9860 O.3     1  UNL1       -0.2915
     25 C          67.7598   91.6050   14.5451 C.2     1  UNL1        0.3267
     26 O          69.0731   92.2763   14.2722 O.2     1  UNL1       -0.2627
     27 H          65.8059   94.2960   15.2258 H       1  UNL1        0.2417
     28 C          65.3141   91.0756   13.8400 C.3     1  UNL1        0.0300
     29 C          65.4124   93.0545   12.1594 C.3     1  UNL1        0.0080
     30 C          64.7908   91.7682   12.6167 C.3     1  UNL1        0.0603
     31 C          63.6458   91.1746   11.8508 C.ar    1  UNL1        0.1390
     32 N          63.5223   91.4205   10.3762 N.ar    1  UNL1       -0.2268
     33 C          62.3774   90.8269    9.6102 C.ar    1  UNL1        0.1314
     34 C          61.3559   89.9874   10.3188 C.ar    1  UNL1        0.1783
     35 F          60.2110   89.3938    9.5528 F       1  UNL1       -0.2009
     36 C          61.4795   89.7416   11.7933 C.ar    1  UNL1        0.1314
     37 N          62.6244   90.3353   12.5593 N.ar    1  UNL1       -0.2268
@<TRIPOS>BOND
     1    30    29    1
     2    30    28    1
     3    28    21    1
     4    21    22    1
     5    21    20    1
     6    20     1    1
     7     1     2    2
     8     1     3    2
     9     1     4    1
    10     4     5    1
    11     5     6    1
    12     6     7    1
    13     7    10    1
    14    10    11    1
    15    11    12    1
    16    12    13   ar
    17    13    14   ar
    18    14    15   ar
    19    15    16    1
    20    15    17   ar
    21    17    18   ar
    22    18    19    1
    23     7     8    1
    24     8     9    1
    25    21    23    1
    26    23    24    1
    27    23    25   am
    28    25    26    2
    29    30    31    1
    30    31    32   ar
    31    32    33   ar
    32    33    34   ar
    33    34    35    1
    34    34    36   ar
    35    36    37   ar
    36     9     4    1
    37    37    31   ar
    38    18    12   ar
    39    24    27    1
@<TRIPOS>MOLECULE
*****
 37 39 0 0 0
SMALL
GASTEIGER

@<TRIPOS>ATOM
      1 S          64.4656   85.1886   14.4461 S.O2    1  UNL1        0.0455
      2 O          63.0227   84.9925   14.0864 O.2     1  UNL1       -0.1572
      3 O          65.9085   85.3847   14.8058 O.2     1  UNL1       -0.1572
      4 N          64.1442   86.5472   14.9947 N.3     1  UNL1       -0.1592
      5 C          64.4761   87.7749   14.1995 C.3     1  UNL1        0.0979
      6 C          64.1547   89.1335   14.7481 C.3     1  UNL1        0.0487
      7 C          63.5013   89.2643   16.0920 C.3     1  UNL1        0.1186
      8 C          63.1694   88.0366   16.8872 C.3     1  UNL1        0.0487
      9 C          63.4908   86.6780   16.3386 C.3     1  UNL1        0.0979
     10 O          63.1799   90.6229   16.6406 O.3     1  UNL1       -0.3514
     11 C          63.5983   91.8528   15.8907 C.3     1  UNL1        0.1693
     12 C          65.0449   92.0746   15.5614 C.ar    1  UNL1        0.0179
     13 C          66.0237   92.3859   16.6545 C.ar    1  UNL1       -0.0001
     14 C          67.4701   92.6078   16.3252 C.ar    1  UNL1        0.0112
     15 C          67.9378   92.5183   14.9028 C.ar    1  UNL1        0.0585
     16 CL         69.3843   92.7402   14.5735 Cl      1  UNL1       -0.0822
     17 C          66.9590   92.2070   13.8097 C.ar    1  UNL1        0.0225
     18 C          65.5125   91.9852   14.1390 C.ar    1  UNL1        0.0569
     19 CL         64.5336   91.6739   13.0458 Cl      1  UNL1       -0.0825
     20 C          64.7870   83.8300   13.8976 C.3     1  UNL1        0.1895
     21 C          63.8153   82.7009   14.0738 C.3     1  UNL1        0.1104
     22 C          63.3271   83.3203   15.3498 C.3     1  UNL1        0.0243
     23 N          62.8437   81.5718   14.2501 N.am    1  UNL1       -0.1662
     24 O          63.3460   80.1659   14.3959 O.3     1  UNL1       -0.2915
     25 C          61.3698   81.8486   14.2807 C.2     1  UNL1        0.3267
     26 O          60.3982   80.7195   14.4570 O.2     1  UNL1       -0.2627
     27 H          64.3152   80.1629   14.3545 H       1  UNL1        0.2417
     28 C          64.3036   82.0816   12.7979 C.3     1  UNL1        0.0300
     29 C          62.9125   80.8097   11.0097 C.3     1  UNL1        0.0080
     30 C          63.4340   82.0973   11.5758 C.3     1  UNL1        0.0603
     31 C          63.0858   83.4005   10.9198 C.ar    1  UNL1        0.1390
     32 N          62.1025   84.3282   11.5697 N.ar    1  UNL1       -0.2268
     33 C          61.7543   85.6314   10.9136 C.ar    1  UNL1        0.1314
     34 C          62.3895   86.0069    9.6076 C.ar    1  UNL1        0.1783
     35 F          62.0413   87.3101    8.9516 F       1  UNL1       -0.2009
     36 C          63.3728   85.0792    8.9577 C.ar    1  UNL1        0.1314
     37 N          63.7210   83.7760    9.6138 N.ar    1  UNL1       -0.2268
@<TRIPOS>BOND
     1    30    29    1
     2    30    28    1
     3    28    21    1
     4    21    22    1
     5    21    20    1
     6    20     1    1
     7     1     2    2
     8     1     3    2
     9     1     4    1
    10     4     5    1
    11     5     6    1
    12     6     7    1
    13     7    10    1
    14    10    11    1
    15    11    12    1
    16    12    13   ar
    17    13    14   ar
    18    14    15   ar
    19    15    16    1
    20    15    17   ar
    21    17    18   ar
    22    18    19    1
    23     7     8    1
    24     8     9    1
    25    21    23    1
    26    23    24    1
    27    23    25   am
    28    25    26    2
    29    30    31    1
    30    31    32   ar
    31    32    33   ar
    32    33    34   ar
    33    34    35    1
    34    34    36   ar
    35    36    37   ar
    36     9     4    1
    37    37    31   ar
    38    18    12   ar
    39    24    27    1
@<TRIPOS>MOLECULE
*****
 37 39 0 0 0
SMALL
GASTEIGER

@<TRIPOS>ATOM
      1 S          64.2734   91.5762   12.6084 S.O2    1  UNL1        0.0455
      2 O          63.7897   91.3436   14.0090 O.2     1  UNL1       -0.1572
      3 O          64.7572   91.8088   11.2078 O.2     1  UNL1       -0.1572
      4 N          63.6206   90.2985   12.1708 N.3     1  UNL1       -0.1592
      5 C          62.8483   90.2527   10.8857 C.3     1  UNL1        0.0979
      6 C          62.1955   88.9751   10.4482 C.3     1  UNL1        0.0487
      7 C          62.3150   87.7433   11.2957 C.3     1  UNL1        0.1186
      8 C          63.0873   87.7890   12.5807 C.3     1  UNL1        0.0487
      9 C          63.7401   89.0667   13.0183 C.3     1  UNL1        0.0979
     10 O          61.6621   86.4656   10.8581 O.3     1  UNL1       -0.3514
     11 C          62.5043   85.3092   10.4071 C.3     1  UNL1        0.1693
     12 C          62.8259   84.1981   11.3622 C.ar    1  UNL1        0.0179
     13 C          62.2602   84.2159   12.7513 C.ar    1  UNL1       -0.0001
     14 C          62.5818   83.1048   13.7063 C.ar    1  UNL1        0.0112
     15 C          63.4691   81.9760   13.2722 C.ar    1  UNL1        0.0585
     16 CL         63.7907   80.8649   14.2273 Cl      1  UNL1       -0.0822
     17 C          64.0348   81.9582   11.8831 C.ar    1  UNL1        0.0225
     18 C          63.7132   83.0693   10.9281 C.ar    1  UNL1        0.0569
     19 CL         64.2789   83.0516    9.5390 Cl      1  UNL1       -0.0825
     20 C          64.9263   92.8538   13.0460 C.3     1  UNL1        0.1895
     21 C          66.2995   92.8261   13.6489 C.3     1  UNL1        0.1104
     22 C          66.1162   91.3794   14.0001 C.3     1  UNL1        0.0243
     23 N          67.6728   92.7985   14.2517 N.am    1  UNL1       -0.1662
     24 O          68.7353   91.9223   13.6572 O.3     1  UNL1       -0.2915
     25 C          67.9835   93.6470   15.4489 C.2     1  UNL1        0.3267
     26 O          69.3568   93.6194   16.0518 O.2     1  UNL1       -0.2627
     27 H          68.3716   91.4445   12.8954 H       1  UNL1        0.2417
     28 C          66.4828   94.2729   13.2976 C.3     1  UNL1        0.0300
     29 C          65.5825   95.8973   11.4808 C.3     1  UNL1        0.0080
     30 C          66.4164   94.7109   11.8646 C.3     1  UNL1        0.0603
     31 C          67.1840   93.9627   10.8152 C.ar    1  UNL1        0.1390
     32 N          67.7647   92.6156   11.1285 N.ar    1  UNL1       -0.2268
     33 C          68.5322   91.8674   10.0791 C.ar    1  UNL1        0.1314
     34 C          68.7190   92.4663    8.7166 C.ar    1  UNL1        0.1783
     35 F          69.4865   91.7181    7.6673 F       1  UNL1       -0.2009
     36 C          68.1383   93.8133    8.4034 C.ar    1  UNL1        0.1314
     37 N          67.3708   94.5616    9.4527 N.ar    1  UNL1       -0.2268
@<TRIPOS>BOND
     1    30    29    1
     2    30    28    1
     3    28    21    1
     4    21    22    1
     5    21    20    1
     6    20     1    1
     7     1     2    2
     8     1     3    2
     9     1     4    1
    10     4     5    1
    11     5     6    1
    12     6     7    1
    13     7    10    1
    14    10    11    1
    15    11    12    1
    16    12    13   ar
    17    13    14   ar
    18    14    15   ar
    19    15    16    1
    20    15    17   ar
    21    17    18   ar
    22    18    19    1
    23     7     8    1
    24     8     9    1
    25    21    23    1
    26    23    24    1
    27    23    25   am
    28    25    26    2
    29    30    31    1
    30    31    32   ar
    31    32    33   ar
    32    33    34   ar
    33    34    35    1
    34    34    36   ar
    35    36    37   ar
    36     9     4    1
    37    37    31   ar
    38    18    12   ar
    39    24    27    1
@<TRIPOS>MOLECULE
*****
 37 39 0 0 0
SMALL
GASTEIGER

@<TRIPOS>ATOM
      1 S          64.2612   90.5553   14.1474 S.O2    1  UNL1        0.0455
      2 O          64.9881   89.2702   14.4119 O.2     1  UNL1       -0.1572
      3 O          63.5342   91.8404   13.8829 O.2     1  UNL1       -0.1572
      4 N          63.6200   89.9435   12.9371 N.3     1  UNL1       -0.1592
      5 C          63.4554   88.4553   12.8470 C.3     1  UNL1        0.0979
      6 C          62.8144   87.8435   11.6368 C.3     1  UNL1        0.0487
      7 C          62.3379   88.7200   10.5166 C.3     1  UNL1        0.1186
      8 C          62.5025   90.2082   10.6067 C.3     1  UNL1        0.0487
      9 C          63.1436   90.8199   11.8169 C.3     1  UNL1        0.0979
     10 O          61.6968   88.1082    9.3063 O.3     1  UNL1       -0.3514
     11 C          61.1426   86.7160    9.3741 C.3     1  UNL1        0.1693
     12 C          61.9753   85.6039    9.9398 C.ar    1  UNL1        0.0179
     13 C          61.8378   85.2242   11.3844 C.ar    1  UNL1       -0.0001
     14 C          62.6706   84.1122   11.9500 C.ar    1  UNL1        0.0112
     15 C          63.6408   83.3800   11.0711 C.ar    1  UNL1        0.0585
     16 CL         64.4735   82.2679   11.6368 Cl      1  UNL1       -0.0822
     17 C          63.7783   83.7597    9.6265 C.ar    1  UNL1        0.0225
     18 C          62.9456   84.8717    9.0609 C.ar    1  UNL1        0.0569
     19 CL         63.0831   85.2515    7.6163 Cl      1  UNL1       -0.0825
     20 C          64.9023   91.1670   15.3576 C.3     1  UNL1        0.1895
     21 C          65.8326   92.3337   15.2046 C.3     1  UNL1        0.1104
     22 C          65.8163   92.5414   16.6901 C.3     1  UNL1        0.0243
     23 N          66.7629   93.5003   15.0517 N.am    1  UNL1       -0.1662
     24 O          66.4409   94.5935   14.0762 O.3     1  UNL1       -0.2915
     25 C          68.0151   93.5739   15.8741 C.2     1  UNL1        0.3267
     26 O          68.9455   94.7406   15.7211 O.2     1  UNL1       -0.2627
     27 H          65.6033   94.3925   13.6303 H       1  UNL1        0.2417
     28 C          65.8489   92.1259   13.7192 C.3     1  UNL1        0.0300
     29 C          68.3169   91.3227   13.6018 C.3     1  UNL1        0.0080
     30 C          67.1558   92.0467   12.9873 C.3     1  UNL1        0.0603
     31 C          67.3016   92.6915   11.6408 C.ar    1  UNL1        0.1390
     32 N          68.2218   92.0931   10.6184 N.ar    1  UNL1       -0.2268
     33 C          68.3676   92.7379    9.2719 C.ar    1  UNL1        0.1314
     34 C          67.5932   93.9810    8.9478 C.ar    1  UNL1        0.1783
     35 F          67.7390   94.6258    7.6013 F       1  UNL1       -0.2009
     36 C          66.6730   94.5793    9.9702 C.ar    1  UNL1        0.1314
     37 N          66.5272   93.9346   11.3167 N.ar    1  UNL1       -0.2268
@<TRIPOS>BOND
     1    30    29    1
     2    30    28    1
     3    28    21    1
     4    21    22    1
     5    21    20    1
     6    20     1    1
     7     1     2    2
     8     1     3    2
     9     1     4    1
    10     4     5    1
    11     5     6    1
    12     6     7    1
    13     7    10    1
    14    10    11    1
    15    11    12    1
    16    12    13   ar
    17    13    14   ar
    18    14    15   ar
    19    15    16    1
    20    15    17   ar
    21    17    18   ar
    22    18    19    1
    23     7     8    1
    24     8     9    1
    25    21    23    1
    26    23    24    1
    27    23    25   am
    28    25    26    2
    29    30    31    1
    30    31    32   ar
    31    32    33   ar
    32    33    34   ar
    33    34    35    1
    34    34    36   ar
    35    36    37   ar
    36     9     4    1
    37    37    31   ar
    38    18    12   ar
    39    24    27    1
