@<TRIPOS>MOLECULE
*****
 31 35 0 0 0
SMALL
GASTEIGER

@<TRIPOS>ATOM
      1 C          63.5956   88.2558   15.4754 C.3     1  UNL1        0.2246
      2 C          63.7445   86.7816   15.2414 C.2     1  UNL1        0.0438
      3 C          63.4774   85.8146   16.3565 C.2     1  UNL1        0.0288
      4 C          63.0613   86.3215   17.7056 C.2     1  UNL1        0.0896
      5 N          62.9124   87.7957   17.9395 N.am    1  UNL1       -0.1770
      6 C          63.1795   88.7628   16.8244 C.2     1  UNL1        0.2627
      7 O          63.0306   90.2369   17.0584 O.2     1  UNL1       -0.2719
      8 C          62.2314   90.3727   10.1142 C.3     1  UNL1        0.0313
      9 C          63.3682   90.9607   10.8965 C.2     1  UNL1        0.0138
     10 C          64.1680   92.0922   10.3221 C.2     1  UNL1        0.0138
     11 C          65.3047   92.6802   11.1043 C.2     1  UNL1        0.0686
     12 C          65.6418   92.1366   12.4612 C.2     1  UNL1        0.0643
     13 C          64.8421   91.0051   13.0356 C.2     1  UNL1        0.2248
     14 N          64.9394   90.2670   14.3379 N.2     1  UNL1       -0.0377
     15 C          63.8627   89.2229   14.3604 C.2     1  UNL1        0.3605
     16 N          63.1000   89.3157   13.0721 N.2     1  UNL1       -0.0547
     17 C          63.7053   90.4171   12.2533 C.3     1  UNL1        0.2976
     18 N          66.1044   93.8118   10.5298 N.ar    1  UNL1       -0.2863
     19 C          65.8971   95.2703   10.8119 C.ar    1  UNL1        0.1022
     20 C          66.9164   96.0434   10.0288 C.ar    1  UNL1        0.1196
     21 N          67.7537   95.0627    9.2626 N.ar    1  UNL1       -0.2220
     22 C          67.2519   93.6835    9.5722 C.ar    1  UNL1        0.1828
     23 N          64.1605   86.2746   13.8925 N.pl3   1  UNL1       -0.3303
     24 H          65.1041   86.3271   13.6164 H       1  UNL1        0.1469
     25 C          63.1391   85.6874   12.9641 C.3     1  UNL1        0.1335
     26 C          62.9468   84.2010   12.9040 C.ar    1  UNL1        0.0788
     27 C          63.2696   83.4534   11.6442 C.ar    1  UNL1        0.0165
     28 C          63.0773   81.9669   11.5842 C.ar    1  UNL1        0.0029
     29 C          62.5623   81.2282   12.7838 C.ar    1  UNL1        0.0207
     30 C          62.2395   81.9759   14.0435 C.ar    1  UNL1        0.0985
     31 N          62.4318   83.4623   14.1035 N.ar    1  UNL1       -0.2464
@<TRIPOS>BOND
     1     8     9    1
     2     9    10    2
     3    10    11    1
     4    11    18    1
     5    18    19   ar
     6    19    20   ar
     7    20    21   ar
     8    21    22   ar
     9    11    12    2
    10    12    13    1
    11    13    14    2
    12    14    15    1
    13    15     1    1
    14     1     2    1
    15     2    23    1
    16    23    25    1
    17    25    26    1
    18    26    27   ar
    19    27    28   ar
    20    28    29   ar
    21    29    30   ar
    22    30    31   ar
    23     2     3    2
    24     3     4    1
    25     4     5    2
    26     5     6    1
    27     6     7    2
    28    15    16    2
    29    16    17    1
    30    17     9    1
    31    22    18   ar
    32    17    13    1
    33     6     1    1
    34    31    26   ar
    35    23    24    1
@<TRIPOS>MOLECULE
*****
 31 35 0 0 0
SMALL
GASTEIGER

@<TRIPOS>ATOM
      1 C          61.2388   88.2274    9.7603 C.3     1  UNL1        0.2246
      2 C          61.4306   86.8290    9.2529 C.2     1  UNL1        0.0438
      3 C          60.5058   86.2765    8.2090 C.2     1  UNL1        0.0288
      4 C          59.3893   87.1224    7.6726 C.2     1  UNL1        0.0896
      5 N          59.1974   88.5208    8.1801 N.am    1  UNL1       -0.1770
      6 C          60.1222   89.0733    9.2239 C.2     1  UNL1        0.2627
      7 O          59.9304   90.4718    9.7314 O.2     1  UNL1       -0.2719
      8 C          64.0607   87.6023   14.9305 C.3     1  UNL1        0.0313
      9 C          64.2240   88.8555   14.1225 C.2     1  UNL1        0.0138
     10 C          65.1064   89.9606   14.6225 C.2     1  UNL1        0.0138
     11 C          65.2697   91.2137   13.8145 C.2     1  UNL1        0.0686
     12 C          64.5505   91.3619   12.5065 C.2     1  UNL1        0.0643
     13 C          63.6681   90.2568   12.0065 C.2     1  UNL1        0.2248
     14 N          62.8391   90.1186   10.7641 N.2     1  UNL1       -0.0377
     15 C          62.1635   88.7800   10.8042 C.2     1  UNL1        0.3605
     16 N          62.5749   88.0909   12.0714 N.2     1  UNL1       -0.0547
     17 C          63.5048   89.0036   12.8145 C.3     1  UNL1        0.2976
     18 N          66.1522   92.3189   14.3146 N.ar    1  UNL1       -0.2863
     19 C          66.8771   92.3427   15.6275 C.ar    1  UNL1        0.1022
     20 C          67.6376   93.6327   15.7138 C.ar    1  UNL1        0.1196
     21 N          67.3827   94.4062   14.4542 N.ar    1  UNL1       -0.2220
     22 C          66.4647   93.5942   13.5894 C.ar    1  UNL1        0.1828
     23 N          62.5471   85.9830    9.7892 N.pl3   1  UNL1       -0.3303
     24 H          63.4603   86.3474    9.8397 H       1  UNL1        0.1469
     25 C          62.2724   84.5818   10.2487 C.3     1  UNL1        0.1335
     26 C          62.8232   84.1004   11.5583 C.ar    1  UNL1        0.0788
     27 C          63.7757   82.9422   11.5909 C.ar    1  UNL1        0.0165
     28 C          64.3265   82.4608   12.9006 C.ar    1  UNL1        0.0029
     29 C          63.9247   83.1377   14.1775 C.ar    1  UNL1        0.0207
     30 C          62.9721   84.2960   14.1447 C.ar    1  UNL1        0.0985
     31 N          62.4214   84.7773   12.8351 N.ar    1  UNL1       -0.2464
@<TRIPOS>BOND
     1     8     9    1
     2     9    10    2
     3    10    11    1
     4    11    18    1
     5    18    19   ar
     6    19    20   ar
     7    20    21   ar
     8    21    22   ar
     9    11    12    2
    10    12    13    1
    11    13    14    2
    12    14    15    1
    13    15     1    1
    14     1     2    1
    15     2    23    1
    16    23    25    1
    17    25    26    1
    18    26    27   ar
    19    27    28   ar
    20    28    29   ar
    21    29    30   ar
    22    30    31   ar
    23     2     3    2
    24     3     4    1
    25     4     5    2
    26     5     6    1
    27     6     7    2
    28    15    16    2
    29    16    17    1
    30    17     9    1
    31    22    18   ar
    32    17    13    1
    33     6     1    1
    34    31    26   ar
    35    23    24    1
@<TRIPOS>MOLECULE
*****
 31 35 0 0 0
SMALL
GASTEIGER

@<TRIPOS>ATOM
      1 C          64.4969   90.8097   14.6578 C.3     1  UNL1        0.2246
      2 C          65.5805   91.7179   14.1571 C.2     1  UNL1        0.0438
      3 C          66.1840   92.7413   15.0729 C.2     1  UNL1        0.0288
      4 C          65.7039   92.8563   16.4893 C.2     1  UNL1        0.0896
      5 N          64.6202   91.9480   16.9900 N.am    1  UNL1       -0.1770
      6 C          64.0167   90.9247   16.0742 C.2     1  UNL1        0.2627
      7 O          62.9331   90.0164   16.5749 O.2     1  UNL1       -0.2719
      8 C          63.5922   85.1320   13.2329 C.3     1  UNL1        0.0313
      9 C          63.0171   86.2287   12.3864 C.2     1  UNL1        0.0138
     10 C          62.2069   85.8908   11.1701 C.2     1  UNL1        0.0138
     11 C          61.6317   86.9874   10.3237 C.2     1  UNL1        0.0686
     12 C          61.8668   88.4220   10.6934 C.2     1  UNL1        0.0643
     13 C          62.6771   88.7599   11.9097 C.2     1  UNL1        0.2248
     14 N          63.0733   90.0721   12.5190 N.2     1  UNL1       -0.0377
     15 C          63.8933   89.7863   13.7420 C.2     1  UNL1        0.3605
     16 N          64.0039   88.2976   13.8887 N.2     1  UNL1       -0.0547
     17 C          63.2522   87.6632   12.7562 C.3     1  UNL1        0.2976
     18 N          60.8215   86.6495    9.1073 N.ar    1  UNL1       -0.2863
     19 C          59.4829   87.2254    8.7517 C.ar    1  UNL1        0.1022
     20 C          59.0417   86.6082    7.4578 C.ar    1  UNL1        0.1196
     21 N          60.1075   85.6508    7.0136 N.ar    1  UNL1       -0.2220
     22 C          61.2075   85.6763    8.0332 C.ar    1  UNL1        0.1828
     23 N          66.0607   91.6030   12.7407 N.pl3   1  UNL1       -0.3303
     24 H          66.8155   91.0094   12.5235 H       1  UNL1        0.1469
     25 C          65.3909   92.3923   11.6552 C.3     1  UNL1        0.1335
     26 C          66.2099   93.2517   10.7384 C.ar    1  UNL1        0.0788
     27 C          67.4206   92.6829   10.0597 C.ar    1  UNL1        0.0165
     28 C          68.2396   93.5424    9.1428 C.ar    1  UNL1        0.0029
     29 C          67.8480   94.9707    8.9047 C.ar    1  UNL1        0.0207
     30 C          66.6372   95.5394    9.5835 C.ar    1  UNL1        0.0985
     31 N          65.8183   94.6800   10.5003 N.ar    1  UNL1       -0.2464
@<TRIPOS>BOND
     1     8     9    1
     2     9    10    2
     3    10    11    1
     4    11    18    1
     5    18    19   ar
     6    19    20   ar
     7    20    21   ar
     8    21    22   ar
     9    11    12    2
    10    12    13    1
    11    13    14    2
    12    14    15    1
    13    15     1    1
    14     1     2    1
    15     2    23    1
    16    23    25    1
    17    25    26    1
    18    26    27   ar
    19    27    28   ar
    20    28    29   ar
    21    29    30   ar
    22    30    31   ar
    23     2     3    2
    24     3     4    1
    25     4     5    2
    26     5     6    1
    27     6     7    2
    28    15    16    2
    29    16    17    1
    30    17     9    1
    31    22    18   ar
    32    17    13    1
    33     6     1    1
    34    31    26   ar
    35    23    24    1
@<TRIPOS>MOLECULE
*****
 31 35 0 0 0
SMALL
GASTEIGER

@<TRIPOS>ATOM
      1 C          64.3173   90.4597   14.8526 C.3     1  UNL1        0.2246
      2 C          65.3883   91.3863   14.3582 C.2     1  UNL1        0.0438
      3 C          65.7613   92.5974   15.1608 C.2     1  UNL1        0.0288
      4 C          65.0635   92.8819   16.4577 C.2     1  UNL1        0.0896
      5 N          63.9925   91.9554   16.9521 N.am    1  UNL1       -0.1770
      6 C          63.6195   90.7442   16.1495 C.2     1  UNL1        0.2627
      7 O          62.5485   89.8176   16.6440 O.2     1  UNL1       -0.2719
      8 C          61.8146   88.1007   10.0302 C.3     1  UNL1        0.0313
      9 C          62.4308   87.2184   11.0752 C.2     1  UNL1        0.0138
     10 C          62.4157   85.7284   10.9027 C.2     1  UNL1        0.0138
     11 C          63.0318   84.8462   11.9476 C.2     1  UNL1        0.0686
     12 C          63.6631   85.4539   13.1651 C.2     1  UNL1        0.0643
     13 C          63.6781   86.9439   13.3376 C.2     1  UNL1        0.2248
     14 N          64.2234   87.8230   14.4238 N.2     1  UNL1       -0.0377
     15 C          63.9442   89.2486   14.0501 C.2     1  UNL1        0.3605
     16 N          63.2264   89.2506   12.7330 N.2     1  UNL1       -0.0547
     17 C          63.0620   87.8261   12.2927 C.3     1  UNL1        0.2976
     18 N          63.0168   83.3562   11.7751 N.ar    1  UNL1       -0.2863
     19 C          63.5408   82.6005   10.5900 C.ar    1  UNL1        0.1022
     20 C          63.3229   81.1376   10.8398 C.ar    1  UNL1        0.1196
     21 N          62.6644   80.9891   12.1793 N.ar    1  UNL1       -0.2220
     22 C          62.4751   82.3603   12.7573 C.ar    1  UNL1        0.1828
     23 N          66.0862   91.1019   13.0613 N.pl3   1  UNL1       -0.3303
     24 H          65.7110   90.4414   12.4349 H       1  UNL1        0.1469
     25 C          67.3556   91.8237   12.7186 C.3     1  UNL1        0.1335
     26 C          67.4481   92.6168   11.4489 C.ar    1  UNL1        0.0788
     27 C          68.1525   92.0427   10.2555 C.ar    1  UNL1        0.0165
     28 C          68.2449   92.8360    8.9857 C.ar    1  UNL1        0.0029
     29 C          67.6329   94.2033    8.9093 C.ar    1  UNL1        0.0207
     30 C          66.9285   94.7774   10.1028 C.ar    1  UNL1        0.0985
     31 N          66.8361   93.9842   11.3725 N.ar    1  UNL1       -0.2464
@<TRIPOS>BOND
     1     8     9    1
     2     9    10    2
     3    10    11    1
     4    11    18    1
     5    18    19   ar
     6    19    20   ar
     7    20    21   ar
     8    21    22   ar
     9    11    12    2
    10    12    13    1
    11    13    14    2
    12    14    15    1
    13    15     1    1
    14     1     2    1
    15     2    23    1
    16    23    25    1
    17    25    26    1
    18    26    27   ar
    19    27    28   ar
    20    28    29   ar
    21    29    30   ar
    22    30    31   ar
    23     2     3    2
    24     3     4    1
    25     4     5    2
    26     5     6    1
    27     6     7    2
    28    15    16    2
    29    16    17    1
    30    17     9    1
    31    22    18   ar
    32    17    13    1
    33     6     1    1
    34    31    26   ar
    35    23    24    1
@<TRIPOS>MOLECULE
*****
 31 35 0 0 0
SMALL
GASTEIGER

@<TRIPOS>ATOM
      1 C          63.2575   83.7427   13.5405 C.3     1  UNL1        0.2246
      2 C          63.7632   82.9481   12.3731 C.2     1  UNL1        0.0438
      3 C          63.5291   81.4676   12.3158 C.2     1  UNL1        0.0288
      4 C          62.7892   80.7817   13.4258 C.2     1  UNL1        0.0896
      5 N          62.2834   81.5762   14.5931 N.am    1  UNL1       -0.1770
      6 C          62.5176   83.0568   14.6505 C.2     1  UNL1        0.2627
      7 O          62.0118   83.8514   15.8179 O.2     1  UNL1       -0.2719
      8 C          62.5710   89.1185   11.1502 C.3     1  UNL1        0.0313
      9 C          63.3128   88.9511   12.4431 C.2     1  UNL1        0.0138
     10 C          63.8865   90.1495   13.1393 C.2     1  UNL1        0.0138
     11 C          64.6283   89.9820   14.4322 C.2     1  UNL1        0.0686
     12 C          64.7965   88.6161   15.0290 C.2     1  UNL1        0.0643
     13 C          64.2228   87.4177   14.3328 C.2     1  UNL1        0.2248
     14 N          64.2294   85.9579   14.6777 N.2     1  UNL1       -0.0377
     15 C          63.4916   85.2232   13.5980 C.2     1  UNL1        0.3605
     16 N          63.0291   86.2289   12.5857 N.2     1  UNL1       -0.0547
     17 C          63.4810   87.5852   13.0398 C.3     1  UNL1        0.2976
     18 N          65.2020   91.1805   15.1284 N.ar    1  UNL1       -0.2863
     19 C          66.4826   91.8766   14.7744 C.ar    1  UNL1        0.1022
     20 C          66.6679   93.0195   15.7280 C.ar    1  UNL1        0.1196
     21 N          65.5017   93.0298   16.6714 N.ar    1  UNL1       -0.2220
     22 C          64.5957   91.8932   16.3008 C.ar    1  UNL1        0.1828
     23 N          64.5031   83.6340   11.2632 N.pl3   1  UNL1       -0.3303
     24 H          65.3001   84.1760   11.4641 H       1  UNL1        0.1469
     25 C          64.0289   83.4940    9.8470 C.3     1  UNL1        0.1335
     26 C          62.9810   84.4242    9.3116 C.ar    1  UNL1        0.0788
     27 C          62.8231   84.6034    7.8308 C.ar    1  UNL1        0.0165
     28 C          61.7752   85.5337    7.2955 C.ar    1  UNL1        0.0029
     29 C          60.8852   86.2847    8.2409 C.ar    1  UNL1        0.0207
     30 C          61.0432   86.1054    9.7218 C.ar    1  UNL1        0.0985
     31 N          62.0911   85.1752   10.2571 N.ar    1  UNL1       -0.2464
@<TRIPOS>BOND
     1     8     9    1
     2     9    10    2
     3    10    11    1
     4    11    18    1
     5    18    19   ar
     6    19    20   ar
     7    20    21   ar
     8    21    22   ar
     9    11    12    2
    10    12    13    1
    11    13    14    2
    12    14    15    1
    13    15     1    1
    14     1     2    1
    15     2    23    1
    16    23    25    1
    17    25    26    1
    18    26    27   ar
    19    27    28   ar
    20    28    29   ar
    21    29    30   ar
    22    30    31   ar
    23     2     3    2
    24     3     4    1
    25     4     5    2
    26     5     6    1
    27     6     7    2
    28    15    16    2
    29    16    17    1
    30    17     9    1
    31    22    18   ar
    32    17    13    1
    33     6     1    1
    34    31    26   ar
    35    23    24    1
@<TRIPOS>MOLECULE
*****
 31 35 0 0 0
SMALL
GASTEIGER

@<TRIPOS>ATOM
      1 C          61.3074   88.4732    9.8938 C.3     1  UNL1        0.2246
      2 C          61.4787   86.9830    9.8945 C.2     1  UNL1        0.0438
      3 C          60.4976   86.1150    9.1636 C.2     1  UNL1        0.0288
      4 C          59.3454   86.7371    8.4319 C.2     1  UNL1        0.0896
      5 N          59.1742   88.2273    8.4312 N.am    1  UNL1       -0.1770
      6 C          60.1552   89.0953    9.1621 C.2     1  UNL1        0.2627
      7 O          59.9839   90.5855    9.1614 O.2     1  UNL1       -0.2719
      8 C          64.8632   93.2096    9.9776 C.3     1  UNL1        0.0313
      9 C          64.7553   92.3192   11.1799 C.2     1  UNL1        0.0138
     10 C          65.5509   92.6258   12.4141 C.2     1  UNL1        0.0138
     11 C          65.4430   91.7354   13.6163 C.2     1  UNL1        0.0686
     12 C          64.5395   90.5384   13.5846 C.2     1  UNL1        0.0643
     13 C          63.7440   90.2319   12.3505 C.2     1  UNL1        0.2248
     14 N          62.7777   89.1311   12.0269 N.2     1  UNL1       -0.0377
     15 C          62.2884   89.3413   10.6246 C.2     1  UNL1        0.3605
     16 N          62.9522   90.5718   10.0815 N.2     1  UNL1       -0.0547
     17 C          63.8518   91.1223   11.1481 C.3     1  UNL1        0.2976
     18 N          66.2387   92.0420   14.8505 N.ar    1  UNL1       -0.2863
     19 C          67.7164   91.8467   15.0179 C.ar    1  UNL1        0.1022
     20 C          68.0873   92.2817   16.4047 C.ar    1  UNL1        0.1196
     21 N          66.8387   92.7459   17.0944 N.ar    1  UNL1       -0.2220
     22 C          65.6962   92.5977   16.1338 C.ar    1  UNL1        0.1828
     23 N          62.6308   86.3608   10.6261 N.pl3   1  UNL1       -0.3303
     24 H          63.2929   86.9320   11.0784 H       1  UNL1        0.1469
     25 C          62.7743   84.8683   10.6686 C.3     1  UNL1        0.1335
     26 C          62.6525   84.1400   11.9743 C.ar    1  UNL1        0.0788
     27 C          62.5772   82.6420   11.9933 C.ar    1  UNL1        0.0165
     28 C          62.4553   81.9138   13.2991 C.ar    1  UNL1        0.0029
     29 C          62.4087   82.6836   14.5857 C.ar    1  UNL1        0.0207
     30 C          62.4840   84.1816   14.5665 C.ar    1  UNL1        0.0985
     31 N          62.6059   84.9098   13.2609 N.ar    1  UNL1       -0.2464
@<TRIPOS>BOND
     1     8     9    1
     2     9    10    2
     3    10    11    1
     4    11    18    1
     5    18    19   ar
     6    19    20   ar
     7    20    21   ar
     8    21    22   ar
     9    11    12    2
    10    12    13    1
    11    13    14    2
    12    14    15    1
    13    15     1    1
    14     1     2    1
    15     2    23    1
    16    23    25    1
    17    25    26    1
    18    26    27   ar
    19    27    28   ar
    20    28    29   ar
    21    29    30   ar
    22    30    31   ar
    23     2     3    2
    24     3     4    1
    25     4     5    2
    26     5     6    1
    27     6     7    2
    28    15    16    2
    29    16    17    1
    30    17     9    1
    31    22    18   ar
    32    17    13    1
    33     6     1    1
    34    31    26   ar
    35    23    24    1
@<TRIPOS>MOLECULE
*****
 31 35 0 0 0
SMALL
GASTEIGER

@<TRIPOS>ATOM
      1 C          62.9085   86.9372   12.2934 C.3     1  UNL1        0.2246
      2 C          63.5361   88.0446   13.0869 C.2     1  UNL1        0.0438
      3 C          64.3064   87.7296   14.3349 C.2     1  UNL1        0.0288
      4 C          64.4490   86.3073   14.7894 C.2     1  UNL1        0.0896
      5 N          63.8214   85.1999   13.9959 N.am    1  UNL1       -0.1770
      6 C          63.0512   85.5148   12.7479 C.2     1  UNL1        0.2627
      7 O          62.4235   84.4074   11.9544 O.2     1  UNL1       -0.2719
      8 C          60.3966   85.1193    7.2466 C.3     1  UNL1        0.0313
      9 C          60.3412   86.5643    7.6453 C.2     1  UNL1        0.0138
     10 C          59.6465   87.5595    6.7639 C.2     1  UNL1        0.0138
     11 C          59.5911   89.0044    7.1626 C.2     1  UNL1        0.0686
     12 C          60.2305   89.4542    8.4428 C.2     1  UNL1        0.0643
     13 C          60.9253   88.4590    9.3242 C.2     1  UNL1        0.2248
     14 N          61.6407   88.6062   10.6344 N.2     1  UNL1       -0.0377
     15 C          62.1382   87.2521   11.0453 C.2     1  UNL1        0.3605
     16 N          61.7303   86.2681    9.9892 N.2     1  UNL1       -0.0547
     17 C          60.9806   87.0141    8.9255 C.3     1  UNL1        0.2976
     18 N          58.8963   89.9996    6.2811 N.ar    1  UNL1       -0.2863
     19 C          59.5635   91.0118    5.3977 C.ar    1  UNL1        0.1022
     20 C          58.4919   91.7950    4.6990 C.ar    1  UNL1        0.1196
     21 N          57.1626   91.2670    5.1505 N.ar    1  UNL1       -0.2220
     22 C          57.4125   90.1573    6.1283 C.ar    1  UNL1        0.1828
     23 N          63.3935   89.4670   12.6324 N.pl3   1  UNL1       -0.3303
     24 H          62.9848   89.6661   11.7592 H       1  UNL1        0.1469
     25 C          63.8736   90.5860   13.5084 C.3     1  UNL1        0.1335
     26 C          64.6950   91.6966   12.9237 C.ar    1  UNL1        0.0788
     27 C          64.6342   91.9797   11.4519 C.ar    1  UNL1        0.0165
     28 C          65.4556   93.0904   10.8674 C.ar    1  UNL1        0.0029
     29 C          66.3378   93.9179   11.7545 C.ar    1  UNL1        0.0207
     30 C          66.3985   93.6347   13.2263 C.ar    1  UNL1        0.0985
     31 N          65.5772   92.5241   13.8109 N.ar    1  UNL1       -0.2464
@<TRIPOS>BOND
     1     8     9    1
     2     9    10    2
     3    10    11    1
     4    11    18    1
     5    18    19   ar
     6    19    20   ar
     7    20    21   ar
     8    21    22   ar
     9    11    12    2
    10    12    13    1
    11    13    14    2
    12    14    15    1
    13    15     1    1
    14     1     2    1
    15     2    23    1
    16    23    25    1
    17    25    26    1
    18    26    27   ar
    19    27    28   ar
    20    28    29   ar
    21    29    30   ar
    22    30    31   ar
    23     2     3    2
    24     3     4    1
    25     4     5    2
    26     5     6    1
    27     6     7    2
    28    15    16    2
    29    16    17    1
    30    17     9    1
    31    22    18   ar
    32    17    13    1
    33     6     1    1
    34    31    26   ar
    35    23    24    1
@<TRIPOS>MOLECULE
*****
 31 35 0 0 0
SMALL
GASTEIGER

@<TRIPOS>ATOM
      1 C          64.0740   89.8825   12.8938 C.3     1  UNL1        0.2246
      2 C          63.5958   90.2964   11.5337 C.2     1  UNL1        0.0438
      3 C          63.8682   91.6839   11.0330 C.2     1  UNL1        0.0288
      4 C          64.6188   92.6575   11.8924 C.2     1  UNL1        0.0896
      5 N          65.0970   92.2437   13.2526 N.am    1  UNL1       -0.1770
      6 C          64.8246   90.8561   13.7532 C.2     1  UNL1        0.2627
      7 O          65.3028   90.4423   15.1134 O.2     1  UNL1       -0.2719
      8 C          63.3254   86.1439   17.4267 C.3     1  UNL1        0.0313
      9 C          63.2359   85.6512   16.0128 C.2     1  UNL1        0.0138
     10 C          62.9553   84.2032   15.7394 C.2     1  UNL1        0.0138
     11 C          62.8658   83.7105   14.3256 C.2     1  UNL1        0.0686
     12 C          63.0570   84.6657   13.1849 C.2     1  UNL1        0.0643
     13 C          63.3377   86.1136   13.4582 C.2     1  UNL1        0.2248
     14 N          63.5691   87.2809   12.5450 N.2     1  UNL1       -0.0377
     15 C          63.8016   88.4950   13.3946 C.2     1  UNL1        0.3605
     16 N          63.7138   88.0782   14.8328 N.2     1  UNL1       -0.0547
     17 C          63.4271   86.6064   14.8721 C.3     1  UNL1        0.2976
     18 N          62.5852   82.2625   14.0523 N.ar    1  UNL1       -0.2863
     19 C          63.5636   81.2612   13.5137 C.ar    1  UNL1        0.1022
     20 C          62.8600   79.9415   13.3981 C.ar    1  UNL1        0.1196
     21 N          61.4467   80.1272   13.8652 N.ar    1  UNL1       -0.2220
     22 C          61.2769   81.5617   14.2695 C.ar    1  UNL1        0.1828
     23 N          62.8452   89.3228   10.6742 N.pl3   1  UNL1       -0.3303
     24 H          63.2592   88.4650   10.4253 H       1  UNL1        0.1469
     25 C          61.4638   89.6562   10.1939 C.3     1  UNL1        0.1335
     26 C          60.7253   88.6961    9.3092 C.ar    1  UNL1        0.0788
     27 C          60.9341   87.2190    9.4663 C.ar    1  UNL1        0.0165
     28 C          60.1955   86.2590    8.5814 C.ar    1  UNL1        0.0029
     29 C          59.2482   86.7759    7.5396 C.ar    1  UNL1        0.0207
     30 C          59.0395   88.2531    7.3826 C.ar    1  UNL1        0.0985
     31 N          59.7780   89.2131    8.2674 N.ar    1  UNL1       -0.2464
@<TRIPOS>BOND
     1     8     9    1
     2     9    10    2
     3    10    11    1
     4    11    18    1
     5    18    19   ar
     6    19    20   ar
     7    20    21   ar
     8    21    22   ar
     9    11    12    2
    10    12    13    1
    11    13    14    2
    12    14    15    1
    13    15     1    1
    14     1     2    1
    15     2    23    1
    16    23    25    1
    17    25    26    1
    18    26    27   ar
    19    27    28   ar
    20    28    29   ar
    21    29    30   ar
    22    30    31   ar
    23     2     3    2
    24     3     4    1
    25     4     5    2
    26     5     6    1
    27     6     7    2
    28    15    16    2
    29    16    17    1
    30    17     9    1
    31    22    18   ar
    32    17    13    1
    33     6     1    1
    34    31    26   ar
    35    23    24    1
