@<TRIPOS>MOLECULE
*****
 33 36 0 0 0
SMALL
GASTEIGER

@<TRIPOS>ATOM
      1 N          60.7957   89.0133   11.1691 N.am    1  UNL1       -0.2533
      2 C          62.0515   89.6997   11.6183 C.2     1  UNL1        0.3092
      3 O          63.0291   90.2142   10.6036 O.2     1  UNL1       -0.2521
      4 N          62.3298   89.8716   13.0822 N.am    1  UNL1       -0.2680
      5 H          60.1541   88.6756   11.8351 H       1  UNL1        0.1578
      6 H          61.6882   89.5339   13.7482 H       1  UNL1        0.1564
      7 C          63.5856   90.5580   13.5314 C.ar    1  UNL1        0.0516
      8 C          64.1752   90.2400   14.8735 C.ar    1  UNL1        0.0148
      9 C          65.4310   90.9265   15.3226 C.ar    1  UNL1        0.0044
     10 C          66.0972   91.9309   14.4298 C.ar    1  UNL1        0.0363
     11 C          65.5076   92.2489   13.0877 C.ar    1  UNL1        0.0044
     12 C          64.2518   91.5624   12.6385 C.ar    1  UNL1        0.0148
     13 C          67.3530   92.6173   14.8790 C.ar    1  UNL1        0.1664
     14 C          68.7395   92.3322   14.3826 C.ar    1  UNL1        0.1396
     15 N          69.6862   93.2480   15.1002 N.ar    1  UNL1       -0.2026
     16 C          68.8848   94.0991   16.0401 C.ar    1  UNL1        0.2851
     17 O          67.4428   93.7093   15.9033 O.2     1  UNL1       -0.4311
     18 N          60.9295   87.6721    8.8608 N.ar    1  UNL1       -0.2162
     19 N          60.4450   87.9166    7.4624 N.ar    1  UNL1       -0.1683
     20 C          59.7335   89.2370    7.4426 C.ar    1  UNL1        0.0810
     21 C          59.7783   89.8085    8.8287 C.ar    1  UNL1        0.0509
     22 C          60.5175   88.8413    9.7052 C.ar    1  UNL1        0.1380
     23 C          63.9802   82.8616   10.7456 C.3     1  UNL1        0.0310
     24 C          63.2176   84.0642   10.2744 C.ar    1  UNL1       -0.0218
     25 C          63.3827   84.5525    8.8658 C.ar    1  UNL1       -0.0027
     26 C          62.6200   85.7551    8.3946 C.ar    1  UNL1        0.0189
     27 C          61.6922   86.4695    9.3320 C.ar    1  UNL1        0.0842
     28 C          61.5271   85.9812   10.7406 C.ar    1  UNL1        0.0189
     29 C          62.2898   84.7786   11.2118 C.ar    1  UNL1       -0.0027
     30 C          59.0901   89.8740    6.2466 C.3     1  UNL1        0.0372
     31 C          57.7655   89.2996    6.6533 C.3     1  UNL1        0.0060
     32 C          60.4148   90.4483    5.8400 C.3     1  UNL1        0.0060
     33 C          58.4468   90.5110    5.0507 C.3     1  UNL1        0.0060
@<TRIPOS>BOND
     1    23    24    1
     2    24    25   ar
     3    25    26   ar
     4    26    27   ar
     5    27    18    1
     6    18    19   ar
     7    19    20   ar
     8    20    30    1
     9    30    31    1
    10    30    32    1
    11    30    33    1
    12    20    21   ar
    13    21    22   ar
    14    22     1    1
    15     1     2   am
    16     2     3    2
    17     2     4   am
    18     4     7    1
    19     7     8   ar
    20     8     9   ar
    21     9    10   ar
    22    10    13    1
    23    13    14   ar
    24    14    15   ar
    25    15    16   ar
    26    16    17   ar
    27    10    11   ar
    28    11    12   ar
    29    27    28   ar
    30    28    29   ar
    31    29    24   ar
    32    22    18   ar
    33    12     7   ar
    34    17    13   ar
    35     1     5    1
    36     4     6    1
@<TRIPOS>MOLECULE
*****
 33 36 0 0 0
SMALL
GASTEIGER

@<TRIPOS>ATOM
      1 N          60.0656   94.5626    0.6208 N.am    1  UNL1       -0.2533
      2 C          60.0157   93.4133    1.5833 C.2     1  UNL1        0.3092
      3 O          60.2926   92.0196    1.1023 O.2     1  UNL1       -0.2521
      4 N          59.6890   93.6573    3.0268 N.am    1  UNL1       -0.2680
      5 H          59.8838   95.4772    0.9365 H       1  UNL1        0.1578
      6 H          59.5072   94.5720    3.3425 H       1  UNL1        0.1564
      7 C          59.6391   92.5079    3.9892 C.ar    1  UNL1        0.0516
      8 C          60.8963   91.7692    4.3410 C.ar    1  UNL1        0.0148
      9 C          60.8465   90.6198    5.3035 C.ar    1  UNL1        0.0044
     10 C          59.5395   90.2090    5.9142 C.ar    1  UNL1        0.0363
     11 C          58.2823   90.9477    5.5624 C.ar    1  UNL1        0.0044
     12 C          58.3321   92.0971    4.5999 C.ar    1  UNL1        0.0148
     13 C          59.4897   89.0596    6.8766 C.ar    1  UNL1        0.1664
     14 C          59.9784   89.0752    8.2947 C.ar    1  UNL1        0.1396
     15 N          59.7331   87.7180    8.8845 N.ar    1  UNL1       -0.2026
     16 C          59.0928   86.8636    7.8310 C.ar    1  UNL1        0.2851
     17 O          58.9423   87.6928    6.5900 O.2     1  UNL1       -0.4311
     18 N          59.4219   94.3607   -1.9657 N.ar    1  UNL1       -0.2162
     19 N          60.1767   94.0576   -3.2259 N.ar    1  UNL1       -0.1683
     20 C          61.6137   93.8281   -2.8619 C.ar    1  UNL1        0.0810
     21 C          61.7469   93.9893   -1.3765 C.ar    1  UNL1        0.0509
     22 C          60.3923   94.3185   -0.8227 C.ar    1  UNL1        0.1380
     23 C          53.5516   95.5355   -1.5666 C.3     1  UNL1        0.0310
     24 C          55.0192   95.2418   -1.6664 C.ar    1  UNL1       -0.0218
     25 C          56.0191   96.3442   -1.4795 C.ar    1  UNL1       -0.0027
     26 C          57.4866   96.0505   -1.5793 C.ar    1  UNL1        0.0189
     27 C          57.9543   94.6544   -1.8659 C.ar    1  UNL1        0.0842
     28 C          56.9544   93.5521   -2.0528 C.ar    1  UNL1        0.0189
     29 C          55.4869   93.8458   -1.9530 C.ar    1  UNL1       -0.0027
     30 C          62.7226   93.4957   -3.8157 C.3     1  UNL1        0.0372
     31 C          63.4761   92.8246   -2.7058 C.3     1  UNL1        0.0060
     32 C          61.9692   94.1669   -4.9255 C.3     1  UNL1        0.0060
     33 C          63.8316   93.1634   -4.7695 C.3     1  UNL1        0.0060
@<TRIPOS>BOND
     1    23    24    1
     2    24    25   ar
     3    25    26   ar
     4    26    27   ar
     5    27    18    1
     6    18    19   ar
     7    19    20   ar
     8    20    30    1
     9    30    31    1
    10    30    32    1
    11    30    33    1
    12    20    21   ar
    13    21    22   ar
    14    22     1    1
    15     1     2   am
    16     2     3    2
    17     2     4   am
    18     4     7    1
    19     7     8   ar
    20     8     9   ar
    21     9    10   ar
    22    10    13    1
    23    13    14   ar
    24    14    15   ar
    25    15    16   ar
    26    16    17   ar
    27    10    11   ar
    28    11    12   ar
    29    27    28   ar
    30    28    29   ar
    31    29    24   ar
    32    22    18   ar
    33    12     7   ar
    34    17    13   ar
    35     1     5    1
    36     4     6    1
@<TRIPOS>MOLECULE
*****
 33 36 0 0 0
SMALL
GASTEIGER

@<TRIPOS>ATOM
      1 N          60.9299   92.7551   -0.5767 N.am    1  UNL1       -0.2533
      2 C          59.7708   93.4804   -1.1933 C.2     1  UNL1        0.3092
      3 O          59.7005   94.9773   -1.1251 O.2     1  UNL1       -0.2521
      4 N          58.6818   92.7090   -1.8782 N.am    1  UNL1       -0.2680
      5 H          60.9760   91.7727   -0.6214 H       1  UNL1        0.1578
      6 H          58.7278   91.7266   -1.9230 H       1  UNL1        0.1564
      7 C          57.5227   93.4344   -2.4948 C.ar    1  UNL1        0.0516
      8 C          56.3976   93.9220   -1.6308 C.ar    1  UNL1        0.0148
      9 C          55.2385   94.6473   -2.2474 C.ar    1  UNL1        0.0044
     10 C          55.2043   94.8851   -3.7281 C.ar    1  UNL1        0.0363
     11 C          56.3294   94.3975   -4.5920 C.ar    1  UNL1        0.0044
     12 C          57.4885   93.6722   -3.9754 C.ar    1  UNL1        0.0148
     13 C          54.0452   95.6105   -4.3447 C.ar    1  UNL1        0.1664
     14 C          53.8770   95.9267   -5.8013 C.ar    1  UNL1        0.1396
     15 N          52.5786   96.6586   -5.9698 N.ar    1  UNL1       -0.2026
     16 C          51.9444   96.7949   -4.6174 C.ar    1  UNL1        0.2851
     17 O          52.8508   96.1471   -3.6129 O.2     1  UNL1       -0.4311
     18 N          62.2898   93.5489    1.5833 N.ar    1  UNL1       -0.2162
     19 N          63.4665   94.4472    1.8249 N.ar    1  UNL1       -0.1683
     20 C          63.9228   94.9801    0.4991 C.ar    1  UNL1        0.0810
     21 C          63.0282   94.4110   -0.5619 C.ar    1  UNL1        0.0509
     22 C          62.0189   93.5266    0.1082 C.ar    1  UNL1        0.1380
     23 C          59.2076   90.5684    5.7806 C.3     1  UNL1        0.0310
     24 C          59.9782   91.3135    4.7313 C.ar    1  UNL1       -0.0218
     25 C          59.3141   92.4067    3.9478 C.ar    1  UNL1       -0.0027
     26 C          60.0846   93.1518    2.8985 C.ar    1  UNL1        0.0189
     27 C          61.5192   92.8038    2.6327 C.ar    1  UNL1        0.0842
     28 C          62.1833   91.7106    3.4162 C.ar    1  UNL1        0.0189
     29 C          61.4128   90.9655    4.4655 C.ar    1  UNL1       -0.0027
     30 C          65.0721   95.9173    0.2739 C.3     1  UNL1        0.0372
     31 C          65.0593   96.2826    1.7286 C.3     1  UNL1        0.0060
     32 C          65.0848   95.5521   -1.1809 C.3     1  UNL1        0.0060
     33 C          66.2213   96.8546    0.0486 C.3     1  UNL1        0.0060
@<TRIPOS>BOND
     1    23    24    1
     2    24    25   ar
     3    25    26   ar
     4    26    27   ar
     5    27    18    1
     6    18    19   ar
     7    19    20   ar
     8    20    30    1
     9    30    31    1
    10    30    32    1
    11    30    33    1
    12    20    21   ar
    13    21    22   ar
    14    22     1    1
    15     1     2   am
    16     2     3    2
    17     2     4   am
    18     4     7    1
    19     7     8   ar
    20     8     9   ar
    21     9    10   ar
    22    10    13    1
    23    13    14   ar
    24    14    15   ar
    25    15    16   ar
    26    16    17   ar
    27    10    11   ar
    28    11    12   ar
    29    27    28   ar
    30    28    29   ar
    31    29    24   ar
    32    22    18   ar
    33    12     7   ar
    34    17    13   ar
    35     1     5    1
    36     4     6    1
@<TRIPOS>MOLECULE
*****
 33 36 0 0 0
SMALL
GASTEIGER

@<TRIPOS>ATOM
      1 N          63.5330   88.4242   15.0730 N.am    1  UNL1       -0.2533
      2 C          63.5006   87.1707   14.2500 C.2     1  UNL1        0.3092
      3 O          63.9676   87.1969   12.8247 O.2     1  UNL1       -0.2521
      4 N          63.0013   85.8908   14.8520 N.am    1  UNL1       -0.2680
      5 H          63.2264   88.4070   16.0084 H       1  UNL1        0.1578
      6 H          62.6947   85.8735   15.7874 H       1  UNL1        0.1564
      7 C          62.9689   84.6372   14.0289 C.ar    1  UNL1        0.0516
      8 C          62.7208   84.7161   12.5517 C.ar    1  UNL1        0.0148
      9 C          62.6885   83.4626   11.7286 C.ar    1  UNL1        0.0044
     10 C          62.9043   82.1301   12.3826 C.ar    1  UNL1        0.0363
     11 C          63.1524   82.0511   13.8598 C.ar    1  UNL1        0.0044
     12 C          63.1847   83.3047   14.6829 C.ar    1  UNL1        0.0148
     13 C          62.8720   80.8765   11.5595 C.ar    1  UNL1        0.1664
     14 C          62.6541   79.4862   12.0787 C.ar    1  UNL1        0.1396
     15 N          62.6993   78.5436   10.9128 N.ar    1  UNL1       -0.2026
     16 C          62.9451   79.3513    9.6730 C.ar    1  UNL1        0.2851
     17 O          63.0518   80.7932   10.0727 O.2     1  UNL1       -0.4311
     18 N          63.5674   90.3120   13.1808 N.ar    1  UNL1       -0.2162
     19 N          64.3320   91.5844   12.9659 N.ar    1  UNL1       -0.1683
     20 C          65.2695   91.7630   14.1231 C.ar    1  UNL1        0.0810
     21 C          65.0843   90.6009   15.0533 C.ar    1  UNL1        0.0509
     22 C          64.0323   89.7041   14.4709 C.ar    1  UNL1        0.1380
     23 C          59.3836   88.0506    9.5226 C.3     1  UNL1        0.0310
     24 C          60.4296   88.6159   10.4371 C.ar    1  UNL1       -0.0218
     25 C          60.0432   89.1261   11.7937 C.ar    1  UNL1       -0.0027
     26 C          61.0891   89.6914   12.7083 C.ar    1  UNL1        0.0189
     27 C          62.5214   89.7466   12.2662 C.ar    1  UNL1        0.0842
     28 C          62.9078   89.2365   10.9096 C.ar    1  UNL1        0.0189
     29 C          61.8619   88.6711    9.9951 C.ar    1  UNL1       -0.0027
     30 C          66.2246   92.9034   14.3162 C.3     1  UNL1        0.0372
     31 C          66.0808   93.2689   12.8686 C.3     1  UNL1        0.0060
     32 C          66.3683   92.5379   15.7639 C.3     1  UNL1        0.0060
     33 C          67.1796   94.0438   14.5093 C.3     1  UNL1        0.0060
@<TRIPOS>BOND
     1    23    24    1
     2    24    25   ar
     3    25    26   ar
     4    26    27   ar
     5    27    18    1
     6    18    19   ar
     7    19    20   ar
     8    20    30    1
     9    30    31    1
    10    30    32    1
    11    30    33    1
    12    20    21   ar
    13    21    22   ar
    14    22     1    1
    15     1     2   am
    16     2     3    2
    17     2     4   am
    18     4     7    1
    19     7     8   ar
    20     8     9   ar
    21     9    10   ar
    22    10    13    1
    23    13    14   ar
    24    14    15   ar
    25    15    16   ar
    26    16    17   ar
    27    10    11   ar
    28    11    12   ar
    29    27    28   ar
    30    28    29   ar
    31    29    24   ar
    32    22    18   ar
    33    12     7   ar
    34    17    13   ar
    35     1     5    1
    36     4     6    1
@<TRIPOS>MOLECULE
*****
 33 36 0 0 0
SMALL
GASTEIGER

@<TRIPOS>ATOM
      1 N          61.7371   88.1618   12.1667 N.am    1  UNL1       -0.2533
      2 C          62.9378   88.8705   12.7197 C.2     1  UNL1        0.3092
      3 O          64.2713   88.1839   12.7386 O.2     1  UNL1       -0.2521
      4 N          62.8051   90.2659   13.2538 N.am    1  UNL1       -0.2680
      5 H          60.8619   88.6124   12.1543 H       1  UNL1        0.1578
      6 H          61.9299   90.7166   13.2415 H       1  UNL1        0.1564
      7 C          64.0059   90.9746   13.8068 C.ar    1  UNL1        0.0516
      8 C          64.2067   91.0639   15.2906 C.ar    1  UNL1        0.0148
      9 C          65.4075   91.7726   15.8436 C.ar    1  UNL1        0.0044
     10 C          66.4075   92.3920   14.9129 C.ar    1  UNL1        0.0363
     11 C          66.2067   92.3027   13.4291 C.ar    1  UNL1        0.0044
     12 C          65.0059   91.5940   12.8761 C.ar    1  UNL1        0.0148
     13 C          67.6083   93.1007   15.4659 C.ar    1  UNL1        0.1664
     14 C          68.7978   92.4504   16.1080 C.ar    1  UNL1        0.1396
     15 N          69.7551   93.5319   16.5129 N.ar    1  UNL1       -0.2026
     16 C          69.1572   94.8507   16.1210 C.ar    1  UNL1        0.2851
     17 O          67.8304   94.5841   15.4739 O.2     1  UNL1       -0.4311
     18 N          61.3980   86.2870   10.2917 N.ar    1  UNL1       -0.2162
     19 N          61.7342   84.8298   10.1760 N.ar    1  UNL1       -0.1683
     20 C          62.4136   84.4085   11.4452 C.ar    1  UNL1        0.0810
     21 C          62.4974   85.6054   12.3454 C.ar    1  UNL1        0.0509
     22 C          61.8697   86.7664   11.6325 C.ar    1  UNL1        0.1380
     23 C          58.6492   89.6143    6.1236 C.3     1  UNL1        0.0310
     24 C          59.3364   88.7824    7.1656 C.ar    1  UNL1       -0.0218
     25 C          60.1357   89.4459    8.2477 C.ar    1  UNL1       -0.0027
     26 C          60.8229   88.6141    9.2898 C.ar    1  UNL1        0.0189
     27 C          60.7108   87.1188    9.2497 C.ar    1  UNL1        0.0842
     28 C          59.9115   86.4554    8.1676 C.ar    1  UNL1        0.0189
     29 C          59.2243   87.2872    7.1256 C.ar    1  UNL1       -0.0027
     30 C          62.9203   83.0320   11.7591 C.3     1  UNL1        0.0372
     31 C          63.4657   82.9153   10.3666 C.3     1  UNL1        0.0060
     32 C          62.3750   83.1488   13.1515 C.3     1  UNL1        0.0060
     33 C          63.4270   81.6555   12.0729 C.3     1  UNL1        0.0060
@<TRIPOS>BOND
     1    23    24    1
     2    24    25   ar
     3    25    26   ar
     4    26    27   ar
     5    27    18    1
     6    18    19   ar
     7    19    20   ar
     8    20    30    1
     9    30    31    1
    10    30    32    1
    11    30    33    1
    12    20    21   ar
    13    21    22   ar
    14    22     1    1
    15     1     2   am
    16     2     3    2
    17     2     4   am
    18     4     7    1
    19     7     8   ar
    20     8     9   ar
    21     9    10   ar
    22    10    13    1
    23    13    14   ar
    24    14    15   ar
    25    15    16   ar
    26    16    17   ar
    27    10    11   ar
    28    11    12   ar
    29    27    28   ar
    30    28    29   ar
    31    29    24   ar
    32    22    18   ar
    33    12     7   ar
    34    17    13   ar
    35     1     5    1
    36     4     6    1
@<TRIPOS>MOLECULE
*****
 33 36 0 0 0
SMALL
GASTEIGER

@<TRIPOS>ATOM
      1 N          60.1960   94.5551    1.1043 N.am    1  UNL1       -0.2533
      2 C          60.3033   93.4955    2.1604 C.2     1  UNL1        0.3092
      3 O          61.5932   92.7537    2.3504 O.2     1  UNL1       -0.2521
      4 N          59.1208   93.1775    3.0268 N.am    1  UNL1       -0.2680
      5 H          59.3494   95.0419    0.9797 H       1  UNL1        0.1578
      6 H          58.2742   93.6643    2.9022 H       1  UNL1        0.1564
      7 C          59.2281   92.1178    4.0829 C.ar    1  UNL1        0.0516
      8 C          60.5733   91.5796    4.4714 C.ar    1  UNL1        0.0148
      9 C          60.6807   90.5199    5.5276 C.ar    1  UNL1        0.0044
     10 C          59.4429   89.9984    6.1953 C.ar    1  UNL1        0.0363
     11 C          58.0978   90.5366    5.8069 C.ar    1  UNL1        0.0044
     12 C          57.9904   91.5963    4.7507 C.ar    1  UNL1        0.0148
     13 C          59.5503   88.9387    7.2515 C.ar    1  UNL1        0.1664
     14 C          60.1372   89.1148    8.6207 C.ar    1  UNL1        0.1396
     15 N          60.0392   87.8018    9.3393 N.ar    1  UNL1       -0.2026
     16 C          59.3918   86.8142    8.4143 C.ar    1  UNL1        0.2851
     17 O          59.0897   87.5169    7.1239 O.2     1  UNL1       -0.4311
     18 N          61.4671   94.6634   -1.2447 N.ar    1  UNL1       -0.2162
     19 N          62.8234   95.1173   -1.6968 N.ar    1  UNL1       -0.1683
     20 C          63.5730   95.6076   -0.4936 C.ar    1  UNL1        0.0810
     21 C          62.6800   95.4566    0.7022 C.ar    1  UNL1        0.0509
     22 C          61.3785   94.8731    0.2379 C.ar    1  UNL1        0.1380
     23 C          57.1536   92.4053   -4.7511 C.3     1  UNL1        0.0310
     24 C          58.2320   92.9699   -3.8745 C.ar    1  UNL1       -0.0218
     25 C          58.4109   92.4523   -2.4781 C.ar    1  UNL1       -0.0027
     26 C          59.4893   93.0169   -1.6015 C.ar    1  UNL1        0.0189
     27 C          60.3887   94.0989   -2.1213 C.ar    1  UNL1        0.0842
     28 C          60.2097   94.6164   -3.5177 C.ar    1  UNL1        0.0189
     29 C          59.1314   94.0519   -4.3944 C.ar    1  UNL1       -0.0027
     30 C          64.9703   96.1530   -0.4872 C.3     1  UNL1        0.0372
     31 C          64.9031   96.3079    1.0032 C.3     1  UNL1        0.0060
     32 C          65.0375   95.9981   -1.9777 C.3     1  UNL1        0.0060
     33 C          66.3676   96.6984   -0.4809 C.3     1  UNL1        0.0060
@<TRIPOS>BOND
     1    23    24    1
     2    24    25   ar
     3    25    26   ar
     4    26    27   ar
     5    27    18    1
     6    18    19   ar
     7    19    20   ar
     8    20    30    1
     9    30    31    1
    10    30    32    1
    11    30    33    1
    12    20    21   ar
    13    21    22   ar
    14    22     1    1
    15     1     2   am
    16     2     3    2
    17     2     4   am
    18     4     7    1
    19     7     8   ar
    20     8     9   ar
    21     9    10   ar
    22    10    13    1
    23    13    14   ar
    24    14    15   ar
    25    15    16   ar
    26    16    17   ar
    27    10    11   ar
    28    11    12   ar
    29    27    28   ar
    30    28    29   ar
    31    29    24   ar
    32    22    18   ar
    33    12     7   ar
    34    17    13   ar
    35     1     5    1
    36     4     6    1
@<TRIPOS>MOLECULE
*****
 33 36 0 0 0
SMALL
GASTEIGER

@<TRIPOS>ATOM
      1 N          62.9020   86.5817   14.3161 N.am    1  UNL1       -0.2533
      2 C          63.4885   87.7304   13.5505 C.2     1  UNL1        0.3092
      3 O          63.9161   87.5416   12.1252 O.2     1  UNL1       -0.2521
      4 N          63.6475   89.0682   14.2101 N.am    1  UNL1       -0.2680
      5 H          62.6214   86.7057   15.2516 H       1  UNL1        0.1578
      6 H          63.3669   89.1923   15.1456 H       1  UNL1        0.1564
      7 C          64.2340   90.2170   13.4445 C.ar    1  UNL1        0.0516
      8 C          65.4111   90.9641   13.9978 C.ar    1  UNL1        0.0148
      9 C          65.9977   92.1129   13.2322 C.ar    1  UNL1        0.0044
     10 C          65.4072   92.5146   11.9132 C.ar    1  UNL1        0.0363
     11 C          64.2300   91.7675   11.3598 C.ar    1  UNL1        0.0044
     12 C          63.6435   90.6187   12.1255 C.ar    1  UNL1        0.0148
     13 C          65.9937   93.6634   11.1475 C.ar    1  UNL1        0.1664
     14 C          66.2029   95.0547   11.6678 C.ar    1  UNL1        0.1396
     15 N          66.8125   95.8737   10.5690 N.ar    1  UNL1       -0.2026
     16 C          66.9801   94.9888    9.3695 C.ar    1  UNL1        0.2851
     17 O          66.4740   93.6227    9.7271 O.2     1  UNL1       -0.4311
     18 N          62.1850   84.9973   12.2862 N.ar    1  UNL1       -0.2162
     19 N          62.2113   83.5188   12.0342 N.ar    1  UNL1       -0.1683
     20 C          62.7856   82.8517   13.2488 C.ar    1  UNL1        0.0810
     21 C          63.1142   83.9179   14.2514 C.ar    1  UNL1        0.0509
     22 C          62.7430   85.2439   13.6565 C.ar    1  UNL1        0.1380
     23 C          60.1969   89.1886    8.4809 C.3     1  UNL1        0.0310
     24 C          60.6939   88.1408    9.4322 C.ar    1  UNL1       -0.0218
     25 C          61.6721   87.1050    8.9629 C.ar    1  UNL1       -0.0027
     26 C          62.1691   86.0572    9.9142 C.ar    1  UNL1        0.0189
     27 C          61.6880   86.0451   11.3349 C.ar    1  UNL1        0.0842
     28 C          60.7098   87.0809   11.8042 C.ar    1  UNL1        0.0189
     29 C          60.2127   88.1287   10.8529 C.ar    1  UNL1       -0.0027
     30 C          62.9945   81.3773   13.4290 C.3     1  UNL1        0.0372
     31 C          61.6677   81.2739   14.1211 C.3     1  UNL1        0.0060
     32 C          64.3213   81.4807   12.7370 C.3     1  UNL1        0.0060
     33 C          63.2034   79.9029   13.6093 C.3     1  UNL1        0.0060
@<TRIPOS>BOND
     1    23    24    1
     2    24    25   ar
     3    25    26   ar
     4    26    27   ar
     5    27    18    1
     6    18    19   ar
     7    19    20   ar
     8    20    30    1
     9    30    31    1
    10    30    32    1
    11    30    33    1
    12    20    21   ar
    13    21    22   ar
    14    22     1    1
    15     1     2   am
    16     2     3    2
    17     2     4   am
    18     4     7    1
    19     7     8   ar
    20     8     9   ar
    21     9    10   ar
    22    10    13    1
    23    13    14   ar
    24    14    15   ar
    25    15    16   ar
    26    16    17   ar
    27    10    11   ar
    28    11    12   ar
    29    27    28   ar
    30    28    29   ar
    31    29    24   ar
    32    22    18   ar
    33    12     7   ar
    34    17    13   ar
    35     1     5    1
    36     4     6    1
@<TRIPOS>MOLECULE
*****
 33 36 0 0 0
SMALL
GASTEIGER

@<TRIPOS>ATOM
      1 N          60.2227   94.5712    1.3944 N.am    1  UNL1       -0.2533
      2 C          60.3062   93.4408    2.3768 C.2     1  UNL1        0.3092
      3 O          61.5033   92.5368    2.3802 O.2     1  UNL1       -0.2521
      4 N          59.1926   93.2142    3.3559 N.am    1  UNL1       -0.2680
      5 H          59.4371   95.1644    1.3923 H       1  UNL1        0.1578
      6 H          58.4069   93.8074    3.3538 H       1  UNL1        0.1564
      7 C          59.2762   92.0837    4.3383 C.ar    1  UNL1        0.0516
      8 C          58.0209   91.4642    4.8773 C.ar    1  UNL1        0.0148
      9 C          58.1044   90.3338    5.8597 C.ar    1  UNL1        0.0044
     10 C          59.4432   89.8228    6.3032 C.ar    1  UNL1        0.0363
     11 C          60.6984   90.4423    5.7642 C.ar    1  UNL1        0.0044
     12 C          60.6149   91.5728    4.7818 C.ar    1  UNL1        0.0148
     13 C          59.5267   88.6924    7.2856 C.ar    1  UNL1        0.1664
     14 C          59.8092   88.8188    8.7533 C.ar    1  UNL1        0.1396
     15 N          59.7995   87.4416    9.3475 N.ar    1  UNL1       -0.2026
     16 C          59.5110   86.4640    8.2471 C.ar    1  UNL1        0.2851
     17 O          59.3424   87.2370    6.9727 O.2     1  UNL1       -0.4311
     18 N          61.3271   94.4138   -1.0347 N.ar    1  UNL1       -0.2162
     19 N          62.6397   94.8269   -1.6318 N.ar    1  UNL1       -0.1683
     20 C          63.4601   95.4661   -0.5508 C.ar    1  UNL1        0.0810
     21 C          62.6545   95.4481    0.7144 C.ar    1  UNL1        0.0509
     22 C          61.3363   94.7977    0.4153 C.ar    1  UNL1        0.1380
     23 C          56.8299   91.7021   -3.9366 C.3     1  UNL1        0.0310
     24 C          57.9542   92.3800   -3.2112 C.ar    1  UNL1       -0.0218
     25 C          58.1906   92.0925   -1.7581 C.ar    1  UNL1       -0.0027
     26 C          59.3149   92.7704   -1.0326 C.ar    1  UNL1        0.0189
     27 C          60.2028   93.7359   -1.7602 C.ar    1  UNL1        0.0842
     28 C          59.9664   94.0234   -3.2132 C.ar    1  UNL1        0.0189
     29 C          58.8421   93.3455   -3.9387 C.ar    1  UNL1       -0.0027
     30 C          64.8431   96.0251   -0.7076 C.3     1  UNL1        0.0372
     31 C          64.5501   96.3477   -2.1429 C.3     1  UNL1        0.0060
     32 C          65.1362   95.7025    0.7277 C.3     1  UNL1        0.0060
     33 C          66.2262   96.5841   -0.8644 C.3     1  UNL1        0.0060
@<TRIPOS>BOND
     1    23    24    1
     2    24    25   ar
     3    25    26   ar
     4    26    27   ar
     5    27    18    1
     6    18    19   ar
     7    19    20   ar
     8    20    30    1
     9    30    31    1
    10    30    32    1
    11    30    33    1
    12    20    21   ar
    13    21    22   ar
    14    22     1    1
    15     1     2   am
    16     2     3    2
    17     2     4   am
    18     4     7    1
    19     7     8   ar
    20     8     9   ar
    21     9    10   ar
    22    10    13    1
    23    13    14   ar
    24    14    15   ar
    25    15    16   ar
    26    16    17   ar
    27    10    11   ar
    28    11    12   ar
    29    27    28   ar
    30    28    29   ar
    31    29    24   ar
    32    22    18   ar
    33    12     7   ar
    34    17    13   ar
    35     1     5    1
    36     4     6    1
@<TRIPOS>MOLECULE
*****
 33 36 0 0 0
SMALL
GASTEIGER

@<TRIPOS>ATOM
      1 N          62.3400   87.2546   13.3905 N.am    1  UNL1       -0.2533
      2 C          63.1050   88.3454   12.7014 C.2     1  UNL1        0.3092
      3 O          63.9255   88.0331   11.4851 O.2     1  UNL1       -0.2521
      4 N          63.0495   89.7487   13.2286 N.am    1  UNL1       -0.2680
      5 H          61.8015   87.4596   14.1887 H       1  UNL1        0.1578
      6 H          62.5110   89.9537   14.0268 H       1  UNL1        0.1564
      7 C          63.8145   90.8395   12.5395 C.ar    1  UNL1        0.0516
      8 C          63.5137   91.1785   11.1096 C.ar    1  UNL1        0.0148
      9 C          64.2787   92.2694   10.4205 C.ar    1  UNL1        0.0044
     10 C          65.3445   93.0212   11.1612 C.ar    1  UNL1        0.0363
     11 C          65.6453   92.6822   12.5911 C.ar    1  UNL1        0.0044
     12 C          64.8803   91.5913   13.2802 C.ar    1  UNL1        0.0148
     13 C          66.1095   94.1120   10.4721 C.ar    1  UNL1        0.1664
     14 C          66.1257   95.5601   10.8631 C.ar    1  UNL1        0.1396
     15 N          67.0188   96.2893    9.9037 N.ar    1  UNL1       -0.2026
     16 C          67.5546   95.2920    8.9197 C.ar    1  UNL1        0.2851
     17 O          66.9926   93.9463    9.2711 O.2     1  UNL1       -0.4311
     18 N          61.8978   85.3920   11.5249 N.ar    1  UNL1       -0.2162
     19 N          62.1532   83.9179   11.4165 N.ar    1  UNL1       -0.1683
     20 C          62.8086   83.4662   12.6879 C.ar    1  UNL1        0.0810
     21 C          62.9584   84.6612   13.5821 C.ar    1  UNL1        0.0509
     22 C          62.3955   85.8514   12.8633 C.ar    1  UNL1        0.1380
     23 C          59.3358   88.8447    7.3399 C.3     1  UNL1        0.0310
     24 C          59.9763   87.9816    8.3861 C.ar    1  UNL1       -0.0218
     25 C          60.7441   86.7580    7.9819 C.ar    1  UNL1       -0.0027
     26 C          61.3846   85.8948    9.0282 C.ar    1  UNL1        0.0189
     27 C          61.2573   86.2552   10.4787 C.ar    1  UNL1        0.0842
     28 C          60.4896   87.4788   10.8829 C.ar    1  UNL1        0.0189
     29 C          59.8491   88.3419    9.8366 C.ar    1  UNL1       -0.0027
     30 C          63.2387   82.0655   13.0087 C.3     1  UNL1        0.0372
     31 C          64.3617   82.1842   12.0215 C.3     1  UNL1        0.0060
     32 C          62.1157   81.9467   13.9960 C.3     1  UNL1        0.0060
     33 C          63.6688   80.6647   13.3296 C.3     1  UNL1        0.0060
@<TRIPOS>BOND
     1    23    24    1
     2    24    25   ar
     3    25    26   ar
     4    26    27   ar
     5    27    18    1
     6    18    19   ar
     7    19    20   ar
     8    20    30    1
     9    30    31    1
    10    30    32    1
    11    30    33    1
    12    20    21   ar
    13    21    22   ar
    14    22     1    1
    15     1     2   am
    16     2     3    2
    17     2     4   am
    18     4     7    1
    19     7     8   ar
    20     8     9   ar
    21     9    10   ar
    22    10    13    1
    23    13    14   ar
    24    14    15   ar
    25    15    16   ar
    26    16    17   ar
    27    10    11   ar
    28    11    12   ar
    29    27    28   ar
    30    28    29   ar
    31    29    24   ar
    32    22    18   ar
    33    12     7   ar
    34    17    13   ar
    35     1     5    1
    36     4     6    1
