@<TRIPOS>MOLECULE
*****
 28 32 0 0 0
SMALL
GASTEIGER

@<TRIPOS>ATOM
      1 C          65.5651   92.9431   12.6911 C.3     1  UNL1        0.1689
      2 C          65.1898   92.3108   13.9986 C.3     1  UNL1        0.2354
      3 O          64.2331   91.1910   13.7142 O.2     1  UNL1       -0.4576
      4 C          64.0172   91.1312   12.2310 C.2     1  UNL1        0.2269
      5 N          64.8404   92.2140   11.5988 N.2     1  UNL1       -0.2313
      6 C          63.1332   90.1592   11.5072 C.ar    1  UNL1        0.0823
      7 C          63.0200   88.6905   11.7905 C.ar    1  UNL1        0.0116
      8 C          62.0241   88.1088   10.8314 C.ar    1  UNL1        0.0067
      9 C          61.5098   86.7125   10.6426 C.ar    1  UNL1        0.0014
     10 C          60.4931   86.4254    9.5778 C.ar    1  UNL1        0.0114
     11 C          59.9908   87.5345    8.7018 C.ar    1  UNL1        0.0582
     12 CL         58.9741   87.2473    7.6369 Cl      1  UNL1       -0.0822
     13 C          60.5051   88.9308    8.8906 C.ar    1  UNL1        0.0179
     14 C          61.5218   89.2180    9.9554 C.ar    1  UNL1        0.0304
     15 S          62.2072   90.4852   10.3731 S.2     1  UNL1       -0.0823
     16 CL         67.7686   96.2249    8.1774 Cl      1  UNL1       -0.0822
     17 C          67.2177   95.4044    9.3058 C.ar    1  UNL1        0.0577
     18 C          67.2707   93.9068    9.2398 C.ar    1  UNL1        0.0111
     19 C          66.7198   93.0864   10.3683 C.ar    1  UNL1       -0.0014
     20 C          66.1159   93.7636   11.5628 C.ar    1  UNL1        0.0033
     21 C          66.0630   95.2612   11.6288 C.ar    1  UNL1       -0.0014
     22 C          66.6139   96.0816   10.5003 C.ar    1  UNL1        0.0111
     23 C          66.4049   93.8436   13.5476 C.3     1  UNL1        0.1595
     24 N          67.5289   93.2721   14.3600 N.ar    1  UNL1       -0.2277
     25 C          67.7426   93.4697   15.8315 C.ar    1  UNL1        0.1973
     26 N          68.9824   92.7223   16.2243 N.ar    1  UNL1       -0.2007
     27 C          69.5350   92.0627   14.9956 C.ar    1  UNL1        0.2210
     28 N          68.6366   92.4026   13.8434 N.ar    1  UNL1       -0.1451
@<TRIPOS>BOND
     1    16    17    1
     2    17    18   ar
     3    18    19   ar
     4    19    20   ar
     5    20     1    1
     6     1    23    1
     7    23    24    1
     8    24    25   ar
     9    25    26   ar
    10    26    27   ar
    11    27    28   ar
    12     1     2    1
    13     2     3    1
    14     3     4    1
    15     4     6    1
    16     6     7   ar
    17     7     8   ar
    18     8     9   ar
    19     9    10   ar
    20    10    11   ar
    21    11    12    1
    22    11    13   ar
    23    13    14   ar
    24    14    15   ar
    25     4     5    2
    26    20    21   ar
    27    21    22   ar
    28    22    17   ar
    29     5     1    1
    30    28    24   ar
    31    15     6   ar
    32    14     8   ar
@<TRIPOS>MOLECULE
*****
 28 32 0 0 0
SMALL
GASTEIGER

@<TRIPOS>ATOM
      1 C          61.4537   87.8772   11.0749 C.3     1  UNL1        0.1689
      2 C          60.5310   89.0527   11.2039 C.3     1  UNL1        0.2354
      3 O          61.2969   90.1757   11.8382 O.2     1  UNL1       -0.4576
      4 C          62.6930   89.6942   12.1011 C.2     1  UNL1        0.2269
      5 N          62.7899   88.2737   11.6294 N.2     1  UNL1       -0.2313
      6 C          63.7982   90.4931   12.7260 C.ar    1  UNL1        0.0823
      7 C          64.3597   91.7816   12.2022 C.ar    1  UNL1        0.0116
      8 C          65.4444   92.2285   13.1369 C.ar    1  UNL1        0.0067
      9 C          66.3471   93.4264   13.1273 C.ar    1  UNL1        0.0014
     10 C          67.3585   93.6121   14.2193 C.ar    1  UNL1        0.0114
     11 C          67.4673   92.5998   15.3208 C.ar    1  UNL1        0.0582
     12 CL         68.4788   92.7856   16.4129 Cl      1  UNL1       -0.0822
     13 C          66.5647   91.4019   15.3305 C.ar    1  UNL1        0.0179
     14 C          65.5532   91.2163   14.2385 C.ar    1  UNL1        0.0304
     15 S          64.5358   90.1437   13.9845 S.2     1  UNL1       -0.0823
     16 CL         64.1450   82.6134   10.0506 Cl      1  UNL1       -0.0822
     17 C          63.4722   83.9293   10.3067 C.ar    1  UNL1        0.0577
     18 C          63.0848   84.3142   11.7037 C.ar    1  UNL1        0.0111
     19 C          62.4119   85.6303   11.9598 C.ar    1  UNL1       -0.0014
     20 C          62.1265   86.5612   10.8188 C.ar    1  UNL1        0.0033
     21 C          62.5140   86.1763    9.4218 C.ar    1  UNL1       -0.0014
     22 C          63.1868   84.8603    9.1658 C.ar    1  UNL1        0.0111
     23 C          60.2582   87.2056   10.4669 C.3     1  UNL1        0.1595
     24 N          59.7615   87.6354    9.1184 N.ar    1  UNL1       -0.2277
     25 C          58.9586   86.7990    8.1667 C.ar    1  UNL1        0.1973
     26 N          58.6814   87.6239    6.9449 N.ar    1  UNL1       -0.2007
     27 C          59.3129   88.9702    7.1416 C.ar    1  UNL1        0.2210
     28 N          59.9804   88.9773    8.4848 N.ar    1  UNL1       -0.1451
@<TRIPOS>BOND
     1    16    17    1
     2    17    18   ar
     3    18    19   ar
     4    19    20   ar
     5    20     1    1
     6     1    23    1
     7    23    24    1
     8    24    25   ar
     9    25    26   ar
    10    26    27   ar
    11    27    28   ar
    12     1     2    1
    13     2     3    1
    14     3     4    1
    15     4     6    1
    16     6     7   ar
    17     7     8   ar
    18     8     9   ar
    19     9    10   ar
    20    10    11   ar
    21    11    12    1
    22    11    13   ar
    23    13    14   ar
    24    14    15   ar
    25     4     5    2
    26    20    21   ar
    27    21    22   ar
    28    22    17   ar
    29     5     1    1
    30    28    24   ar
    31    15     6   ar
    32    14     8   ar
@<TRIPOS>MOLECULE
*****
 28 32 0 0 0
SMALL
GASTEIGER

@<TRIPOS>ATOM
      1 C          61.8667   87.1926   11.2700 C.3     1  UNL1        0.1689
      2 C          60.9573   88.3103   10.8533 C.3     1  UNL1        0.2354
      3 O          61.5845   89.6032   11.2836 O.2     1  UNL1       -0.4576
      4 C          62.8816   89.2845   11.9662 C.2     1  UNL1        0.2269
      5 N          63.0561   87.7948   11.9578 N.2     1  UNL1       -0.2313
      6 C          63.8367   90.2808   12.5540 C.ar    1  UNL1        0.0823
      7 C          64.2850   91.5588   11.9094 C.ar    1  UNL1        0.0116
      8 C          65.2365   92.2418   12.8465 C.ar    1  UNL1        0.0067
      9 C          65.9937   93.5325   12.7436 C.ar    1  UNL1        0.0014
     10 C          66.8905   93.9673   13.8646 C.ar    1  UNL1        0.0114
     11 C          67.0302   93.1113   15.0884 C.ar    1  UNL1        0.0582
     12 CL         67.9271   93.5461   16.2094 Cl      1  UNL1       -0.0822
     13 C          66.2730   91.8206   15.1914 C.ar    1  UNL1        0.0179
     14 C          65.3761   91.3859   14.0704 C.ar    1  UNL1        0.0304
     15 S          64.5110   90.1739   13.8896 S.2     1  UNL1       -0.0823
     16 CL         64.6311   81.9911   12.4113 Cl      1  UNL1       -0.0822
     17 C          63.9400   83.2915   12.1260 C.ar    1  UNL1        0.0577
     18 C          63.4352   83.5852   10.7444 C.ar    1  UNL1        0.0111
     19 C          62.7440   84.8856   10.4590 C.ar    1  UNL1       -0.0014
     20 C          62.5578   85.8923   11.5554 C.ar    1  UNL1        0.0033
     21 C          63.0627   85.5986   12.9370 C.ar    1  UNL1       -0.0014
     22 C          63.7538   84.2982   13.2223 C.ar    1  UNL1        0.0111
     23 C          60.8219   86.3188   10.6419 C.3     1  UNL1        0.1595
     24 N          60.2341   86.6895    9.3126 N.ar    1  UNL1       -0.2277
     25 C          60.4204   85.9407    8.0264 C.ar    1  UNL1        0.1973
     26 N          59.6582   86.6626    6.9550 N.ar    1  UNL1       -0.2007
     27 C          59.0007   87.8578    7.5792 C.ar    1  UNL1        0.2210
     28 N          59.3567   87.8743    9.0363 N.ar    1  UNL1       -0.1451
@<TRIPOS>BOND
     1    16    17    1
     2    17    18   ar
     3    18    19   ar
     4    19    20   ar
     5    20     1    1
     6     1    23    1
     7    23    24    1
     8    24    25   ar
     9    25    26   ar
    10    26    27   ar
    11    27    28   ar
    12     1     2    1
    13     2     3    1
    14     3     4    1
    15     4     6    1
    16     6     7   ar
    17     7     8   ar
    18     8     9   ar
    19     9    10   ar
    20    10    11   ar
    21    11    12    1
    22    11    13   ar
    23    13    14   ar
    24    14    15   ar
    25     4     5    2
    26    20    21   ar
    27    21    22   ar
    28    22    17   ar
    29     5     1    1
    30    28    24   ar
    31    15     6   ar
    32    14     8   ar
@<TRIPOS>MOLECULE
*****
 28 32 0 0 0
SMALL
GASTEIGER

@<TRIPOS>ATOM
      1 C          64.6285   91.2828   13.0408 C.3     1  UNL1        0.1689
      2 C          63.4913   91.2072   12.0656 C.3     1  UNL1        0.2354
      3 O          63.0100   89.7871   12.0240 O.2     1  UNL1       -0.4576
      4 C          63.8498   88.9850   12.9734 C.2     1  UNL1        0.2269
      5 N          64.8500   89.9094   13.6018 N.2     1  UNL1       -0.2313
      6 C          63.7132   87.5164   13.2464 C.ar    1  UNL1        0.0823
      7 C          64.2488   86.7887   14.4437 C.ar    1  UNL1        0.0116
      8 C          63.8837   85.3402   14.3074 C.ar    1  UNL1        0.0067
      9 C          64.1461   84.1521   15.1846 C.ar    1  UNL1        0.0014
     10 C          63.6472   82.7966   14.7803 C.ar    1  UNL1        0.0114
     11 C          62.8859   82.6291   13.4988 C.ar    1  UNL1        0.0582
     12 CL         62.3870   81.2734   13.0945 Cl      1  UNL1       -0.0822
     13 C          62.6235   83.8171   12.6215 C.ar    1  UNL1        0.0179
     14 C          63.1224   85.1727   13.0258 C.ar    1  UNL1        0.0304
     15 S          63.0171   86.5177   12.3701 S.2     1  UNL1       -0.0823
     16 CL         69.1915   92.7997   16.6294 Cl      1  UNL1       -0.0822
     17 C          68.0508   92.4205   15.7323 C.ar    1  UNL1        0.0577
     18 C          66.6373   92.5771   16.2093 C.ar    1  UNL1        0.0111
     19 C          65.4965   92.1978   15.3121 C.ar    1  UNL1       -0.0014
     20 C          65.7693   91.6620   13.9379 C.ar    1  UNL1        0.0033
     21 C          67.1827   91.5054   13.4608 C.ar    1  UNL1       -0.0014
     22 C          68.3234   91.8846   14.3580 C.ar    1  UNL1        0.0111
     23 C          64.6454   92.7354   12.6673 C.3     1  UNL1        0.1595
     24 N          65.6382   93.2400   11.6624 N.ar    1  UNL1       -0.2277
     25 C          66.2862   94.5928   11.6657 C.ar    1  UNL1        0.1973
     26 N          67.2058   94.6692   10.4830 N.ar    1  UNL1       -0.2007
     27 C          67.1261   93.3635    9.7489 C.ar    1  UNL1        0.2210
     28 N          66.1573   92.4803   10.4778 N.ar    1  UNL1       -0.1451
@<TRIPOS>BOND
     1    16    17    1
     2    17    18   ar
     3    18    19   ar
     4    19    20   ar
     5    20     1    1
     6     1    23    1
     7    23    24    1
     8    24    25   ar
     9    25    26   ar
    10    26    27   ar
    11    27    28   ar
    12     1     2    1
    13     2     3    1
    14     3     4    1
    15     4     6    1
    16     6     7   ar
    17     7     8   ar
    18     8     9   ar
    19     9    10   ar
    20    10    11   ar
    21    11    12    1
    22    11    13   ar
    23    13    14   ar
    24    14    15   ar
    25     4     5    2
    26    20    21   ar
    27    21    22   ar
    28    22    17   ar
    29     5     1    1
    30    28    24   ar
    31    15     6   ar
    32    14     8   ar
@<TRIPOS>MOLECULE
*****
 28 32 0 0 0
SMALL
GASTEIGER

@<TRIPOS>ATOM
      1 C          62.2930   86.9087   11.7526 C.3     1  UNL1        0.1689
      2 C          62.9491   86.1662   12.8788 C.3     1  UNL1        0.2354
      3 O          63.8590   87.1199   13.5947 O.2     1  UNL1       -0.4576
      4 C          63.7654   88.4517   12.9110 C.2     1  UNL1        0.2269
      5 N          62.7975   88.3212   11.7725 N.2     1  UNL1       -0.2313
      6 C          64.5090   89.6956   13.2979 C.ar    1  UNL1        0.0823
      7 C          64.5472   90.9778   12.5204 C.ar    1  UNL1        0.0116
      8 C          65.4068   91.9504   13.2722 C.ar    1  UNL1        0.0067
      9 C          65.8042   93.3682   12.9862 C.ar    1  UNL1        0.0014
     10 C          66.6947   94.1049   13.9423 C.ar    1  UNL1        0.0114
     11 C          67.1877   93.4238   15.1845 C.ar    1  UNL1        0.0582
     12 CL         68.0782   94.1606   16.1407 Cl      1  UNL1       -0.0822
     13 C          66.7902   92.0060   15.4706 C.ar    1  UNL1        0.0179
     14 C          65.8998   91.2693   14.5144 C.ar    1  UNL1        0.0304
     15 S          65.3449   89.8758   14.5303 S.2     1  UNL1       -0.0823
     16 CL         59.1078   88.7792    7.0244 Cl      1  UNL1       -0.0822
     17 C          59.9041   88.3115    8.2064 C.ar    1  UNL1        0.0577
     18 C          60.0811   86.8434    8.4581 C.ar    1  UNL1        0.0111
     19 C          60.8774   86.3758    9.6403 C.ar    1  UNL1       -0.0014
     20 C          61.4968   87.3763   10.5705 C.ar    1  UNL1        0.0033
     21 C          61.3198   88.8444   10.3188 C.ar    1  UNL1       -0.0014
     22 C          60.5235   89.3120    9.1367 C.ar    1  UNL1        0.0111
     23 C          61.6221   85.5940   11.4855 C.3     1  UNL1        0.1595
     24 N          62.4462   84.3522   11.3153 N.ar    1  UNL1       -0.2277
     25 C          63.4796   84.1184   10.2535 C.ar    1  UNL1        0.1973
     26 N          64.0535   82.7479   10.4590 N.ar    1  UNL1       -0.2007
     27 C          63.3748   82.1346   11.6479 C.ar    1  UNL1        0.2210
     28 N          62.3814   83.1262   12.1770 N.ar    1  UNL1       -0.1451
@<TRIPOS>BOND
     1    16    17    1
     2    17    18   ar
     3    18    19   ar
     4    19    20   ar
     5    20     1    1
     6     1    23    1
     7    23    24    1
     8    24    25   ar
     9    25    26   ar
    10    26    27   ar
    11    27    28   ar
    12     1     2    1
    13     2     3    1
    14     3     4    1
    15     4     6    1
    16     6     7   ar
    17     7     8   ar
    18     8     9   ar
    19     9    10   ar
    20    10    11   ar
    21    11    12    1
    22    11    13   ar
    23    13    14   ar
    24    14    15   ar
    25     4     5    2
    26    20    21   ar
    27    21    22   ar
    28    22    17   ar
    29     5     1    1
    30    28    24   ar
    31    15     6   ar
    32    14     8   ar
@<TRIPOS>MOLECULE
*****
 28 32 0 0 0
SMALL
GASTEIGER

@<TRIPOS>ATOM
      1 C          62.7540   88.1223   11.9816 C.3     1  UNL1        0.1689
      2 C          63.6768   88.0267   13.1603 C.3     1  UNL1        0.2354
      3 O          63.8604   86.5747   13.4888 O.2     1  UNL1       -0.4576
      4 C          63.0511   85.7728   12.5131 C.2     1  UNL1        0.2269
      5 N          62.3673   86.7293   11.5816 N.2     1  UNL1       -0.2313
      6 C          62.9443   84.2771   12.4754 C.ar    1  UNL1        0.0823
      7 C          62.6848   83.3818   13.6507 C.ar    1  UNL1        0.0116
      8 C          62.6584   81.9654   13.1576 C.ar    1  UNL1        0.0067
      9 C          62.4444   80.6602   13.8650 C.ar    1  UNL1        0.0014
     10 C          62.4734   79.3748   13.0924 C.ar    1  UNL1        0.0114
     11 C          62.7165   79.3947   11.6124 C.ar    1  UNL1        0.0582
     12 CL         62.7456   78.1093   10.8398 Cl      1  UNL1       -0.0822
     13 C          62.9306   80.6999   10.9049 C.ar    1  UNL1        0.0179
     14 C          62.9015   81.9853   11.6775 C.ar    1  UNL1        0.0304
     15 S          63.0782   83.4140   11.2560 S.2     1  UNL1       -0.0823
     16 CL         59.2323   89.7399    7.4011 Cl      1  UNL1       -0.0822
     17 C          60.1127   89.3355    8.5462 C.ar    1  UNL1        0.0577
     18 C          60.3904   90.3043    9.6572 C.ar    1  UNL1        0.0111
     19 C          61.2709   89.8998   10.8024 C.ar    1  UNL1       -0.0014
     20 C          61.8736   88.5266   10.8365 C.ar    1  UNL1        0.0033
     21 C          61.5959   87.5579    9.7255 C.ar    1  UNL1       -0.0014
     22 C          60.7155   87.9623    8.5804 C.ar    1  UNL1        0.0111
     23 C          62.9567   89.5997   12.1422 C.3     1  UNL1        0.1595
     24 N          63.3865   90.1583   13.4663 N.ar    1  UNL1       -0.2277
     25 C          64.5315   91.0997   13.6964 C.ar    1  UNL1        0.1973
     26 N          64.5994   91.3967   15.1652 N.ar    1  UNL1       -0.2007
     27 C          63.4964   90.6389   15.8428 C.ar    1  UNL1        0.2210
     28 N          62.7469   89.8735   14.7928 N.ar    1  UNL1       -0.1451
@<TRIPOS>BOND
     1    16    17    1
     2    17    18   ar
     3    18    19   ar
     4    19    20   ar
     5    20     1    1
     6     1    23    1
     7    23    24    1
     8    24    25   ar
     9    25    26   ar
    10    26    27   ar
    11    27    28   ar
    12     1     2    1
    13     2     3    1
    14     3     4    1
    15     4     6    1
    16     6     7   ar
    17     7     8   ar
    18     8     9   ar
    19     9    10   ar
    20    10    11   ar
    21    11    12    1
    22    11    13   ar
    23    13    14   ar
    24    14    15   ar
    25     4     5    2
    26    20    21   ar
    27    21    22   ar
    28    22    17   ar
    29     5     1    1
    30    28    24   ar
    31    15     6   ar
    32    14     8   ar
