@<TRIPOS>MOLECULE
*****
 36 39 0 0 0
SMALL
GASTEIGER

@<TRIPOS>ATOM
      1 C          64.2765   88.7223   13.6915 C.ar    1  UNL1        0.1318
      2 C          64.6164   87.9592   14.9373 C.ar    1  UNL1        0.0345
      3 C          64.1726   86.5344   15.0888 C.ar    1  UNL1        0.0090
      4 C          63.3888   85.8726   13.9943 C.ar    1  UNL1        0.0729
      5 C          63.0488   86.6357   12.7485 C.ar    1  UNL1        0.1048
      6 N          63.4927   88.0606   12.5971 N.ar    1  UNL1       -0.2290
      7 C          66.8940   92.8353   15.4891 C.3     1  UNL1        0.0234
      8 C          66.0291   92.2036   14.4389 C.3     1  UNL1        0.0984
      9 C          65.5852   90.7788   14.5903 C.3     1  UNL1        0.1120
     10 N          64.7203   90.1471   13.5401 N.pl3   1  UNL1       -0.2898
     11 C          64.2993   90.9402   12.3386 C.3     1  UNL1        0.1138
     12 C          64.7431   92.3650   12.1872 C.3     1  UNL1        0.1181
     13 N          65.6080   92.9967   13.2374 N.am    1  UNL1       -0.2442
     14 C          66.0519   94.4215   13.0860 C.2     1  UNL1        0.4052
     15 O          66.9168   95.0533   14.1362 O.2     1  UNL1       -0.2262
     16 O          65.6308   95.2146   11.8845 O.3     1  UNL1       -0.4295
     17 C          66.6306   95.5459   10.8164 C.3     1  UNL1        0.2367
     18 C          67.3195   94.4446   10.0664 C.ar    1  UNL1        0.0213
     19 C          67.7246   94.6501    8.6368 C.ar    1  UNL1       -0.0007
     20 C          68.4135   93.5488    7.8867 C.ar    1  UNL1       -0.0002
     21 C          68.6973   92.2420    8.5662 C.ar    1  UNL1       -0.0000
     22 C          68.2922   92.0365    9.9959 C.ar    1  UNL1       -0.0002
     23 C          67.6034   93.1378   10.7459 C.ar    1  UNL1       -0.0007
     24 C          62.9450   84.4478   14.1458 C.2     1  UNL1        0.2510
     25 O          62.5795   83.9161   15.4999 O.2     1  UNL1       -0.2698
     26 N          62.8667   83.5548   12.9431 N.am    1  UNL1       -0.2794
     27 H          63.1066   83.9038   12.0544 H       1  UNL1        0.1552
     28 C          62.4229   82.1300   13.0946 C.ar    1  UNL1        0.0636
     29 C          61.4646   81.7549   14.1859 C.ar    1  UNL1        0.0159
     30 C          61.0208   80.3301   14.3373 C.ar    1  UNL1        0.0014
     31 C          61.5353   79.2804   13.3974 C.ar    1  UNL1        0.0013
     32 C          62.4936   79.6555   12.3061 C.ar    1  UNL1        0.0153
     33 C          62.9374   81.0803   12.1547 C.ar    1  UNL1        0.0552
     34 N          63.8957   81.4554   11.0634 N.pl3   1  UNL1       -0.3560
     35 H          64.2334   80.7664   10.4465 H       1  UNL1        0.1424
     36 H          64.1870   82.3905   10.9640 H       1  UNL1        0.1424
@<TRIPOS>BOND
     1     8     7    1
     2     8     9    1
     3     9    10    1
     4    10     1    1
     5     1     2   ar
     6     2     3   ar
     7     3     4   ar
     8     4    24    1
     9    24    25    2
    10    24    26   am
    11    26    28    1
    12    28    29   ar
    13    29    30   ar
    14    30    31   ar
    15    31    32   ar
    16    32    33   ar
    17    33    34    1
    18     4     5   ar
    19     5     6   ar
    20    10    11    1
    21    11    12    1
    22    12    13    1
    23    13    14   am
    24    14    15    2
    25    14    16    1
    26    16    17    1
    27    17    18    1
    28    18    19   ar
    29    19    20   ar
    30    20    21   ar
    31    21    22   ar
    32    22    23   ar
    33    13     8    1
    34    23    18   ar
    35     6     1   ar
    36    33    28   ar
    37    26    27    1
    38    34    35    1
    39    34    36    1
@<TRIPOS>MOLECULE
*****
 36 39 0 0 0
SMALL
GASTEIGER

@<TRIPOS>ATOM
      1 C          59.9563   92.4176    3.1865 C.ar    1  UNL1        0.1318
      2 C          61.1835   91.7131    3.6843 C.ar    1  UNL1        0.0345
      3 C          61.0957   90.8037    4.8738 C.ar    1  UNL1        0.0090
      4 C          59.7806   90.5986    5.5657 C.ar    1  UNL1        0.0729
      5 C          58.5534   91.3031    5.0679 C.ar    1  UNL1        0.1048
      6 N          58.6413   92.2126    3.8783 N.ar    1  UNL1       -0.2290
      7 C          57.8168   94.4553   -1.0879 C.3     1  UNL1        0.0234
      8 C          58.9745   94.3459   -0.1403 C.3     1  UNL1        0.0984
      9 C          58.8866   93.4365    1.0493 C.3     1  UNL1        0.1120
     10 N          60.0442   93.3271    1.9969 N.pl3   1  UNL1       -0.2898
     11 C          61.2897   94.1272    1.7549 C.3     1  UNL1        0.1138
     12 C          61.3776   95.0366    0.5653 C.3     1  UNL1        0.1181
     13 N          60.2199   95.1460   -0.3823 N.am    1  UNL1       -0.2442
     14 C          60.3078   96.0555   -1.5719 C.2     1  UNL1        0.4052
     15 O          59.1502   96.1649   -2.5195 O.2     1  UNL1       -0.2262
     16 O          61.5533   96.8556   -1.8139 O.3     1  UNL1       -0.4295
     17 C          62.2816   96.7331   -3.1195 C.3     1  UNL1        0.2367
     18 C          62.7809   95.3947   -3.5771 C.ar    1  UNL1        0.0213
     19 C          63.3312   94.4186   -2.5799 C.ar    1  UNL1       -0.0007
     20 C          63.8306   93.0801   -3.0375 C.ar    1  UNL1       -0.0002
     21 C          63.7796   92.7179   -4.4922 C.ar    1  UNL1       -0.0000
     22 C          63.2292   93.6941   -5.4894 C.ar    1  UNL1       -0.0002
     23 C          62.7299   95.0325   -5.0318 C.ar    1  UNL1       -0.0007
     24 C          59.6927   89.6892    6.7553 C.2     1  UNL1        0.2510
     25 O          58.5154   88.7734    6.9138 O.2     1  UNL1       -0.2698
     26 N          60.7822   89.6955    7.7863 N.am    1  UNL1       -0.2794
     27 H          61.5550   90.2965    7.6822 H       1  UNL1        0.1552
     28 C          60.6944   88.7860    8.9758 C.ar    1  UNL1        0.0636
     29 C          61.0564   87.3367    8.8402 C.ar    1  UNL1        0.0159
     30 C          60.9686   86.4272   10.0299 C.ar    1  UNL1        0.0014
     31 C          60.5187   86.9671   11.3550 C.ar    1  UNL1        0.0013
     32 C          60.1566   88.4164   11.4907 C.ar    1  UNL1        0.0153
     33 C          60.2445   89.3258   10.3011 C.ar    1  UNL1        0.0552
     34 N          59.8824   90.7752   10.4367 N.pl3   1  UNL1       -0.3560
     35 H          59.5872   91.1295   11.3065 H       1  UNL1        0.1424
     36 H          59.9401   91.3721    9.6559 H       1  UNL1        0.1424
@<TRIPOS>BOND
     1     8     7    1
     2     8     9    1
     3     9    10    1
     4    10     1    1
     5     1     2   ar
     6     2     3   ar
     7     3     4   ar
     8     4    24    1
     9    24    25    2
    10    24    26   am
    11    26    28    1
    12    28    29   ar
    13    29    30   ar
    14    30    31   ar
    15    31    32   ar
    16    32    33   ar
    17    33    34    1
    18     4     5   ar
    19     5     6   ar
    20    10    11    1
    21    11    12    1
    22    12    13    1
    23    13    14   am
    24    14    15    2
    25    14    16    1
    26    16    17    1
    27    17    18    1
    28    18    19   ar
    29    19    20   ar
    30    20    21   ar
    31    21    22   ar
    32    22    23   ar
    33    13     8    1
    34    23    18   ar
    35     6     1   ar
    36    33    28   ar
    37    26    27    1
    38    34    35    1
    39    34    36    1
@<TRIPOS>MOLECULE
*****
 36 39 0 0 0
SMALL
GASTEIGER

@<TRIPOS>ATOM
      1 C          59.8893   90.6079    5.7260 C.ar    1  UNL1        0.1318
      2 C          58.5331   91.1052    5.3217 C.ar    1  UNL1        0.0345
      3 C          58.3821   91.9620    4.0998 C.ar    1  UNL1        0.0090
      4 C          59.5872   92.3216    3.2822 C.ar    1  UNL1        0.0729
      5 C          60.9434   91.8243    3.6866 C.ar    1  UNL1        0.1048
      6 N          61.0944   90.9674    4.9085 N.ar    1  UNL1       -0.2290
      7 C          60.0729   90.1373   10.8975 C.3     1  UNL1        0.0234
      8 C          60.1322   89.5158    9.5337 C.3     1  UNL1        0.0984
      9 C          59.9811   90.3726    8.3118 C.3     1  UNL1        0.1120
     10 N          60.0404   89.7510    6.9479 N.pl3   1  UNL1       -0.2898
     11 C          60.2506   88.2727    6.8059 C.3     1  UNL1        0.1138
     12 C          60.4016   87.4159    8.0278 C.3     1  UNL1        0.1181
     13 N          60.3424   88.0374    9.3917 N.am    1  UNL1       -0.2442
     14 C          60.4934   87.1805   10.6136 C.2     1  UNL1        0.4052
     15 O          60.4342   87.8021   11.9775 O.2     1  UNL1       -0.2262
     16 O          60.7036   85.7022   10.4716 O.3     1  UNL1       -0.4295
     17 C          62.0754   85.1630   10.1929 C.3     1  UNL1        0.2367
     18 C          62.8398   84.4613   11.2760 C.ar    1  UNL1        0.0213
     19 C          62.8519   85.0200   12.6680 C.ar    1  UNL1       -0.0007
     20 C          63.6164   84.3183   13.7512 C.ar    1  UNL1       -0.0002
     21 C          64.3687   83.0579   13.4424 C.ar    1  UNL1       -0.0000
     22 C          64.3566   82.4992   12.0503 C.ar    1  UNL1       -0.0002
     23 C          63.5922   83.2009   10.9671 C.ar    1  UNL1       -0.0007
     24 C          59.4362   93.1784    2.0604 C.2     1  UNL1        0.2510
     25 O          59.8116   94.6298    2.1111 O.2     1  UNL1       -0.2698
     26 N          58.9096   92.5840    0.7878 N.am    1  UNL1       -0.2794
     27 H          58.6632   91.6314    0.7546 H       1  UNL1        0.1552
     28 C          58.7586   93.4408   -0.4340 C.ar    1  UNL1        0.0636
     29 C          57.4429   94.0966   -0.7322 C.ar    1  UNL1        0.0159
     30 C          57.2918   94.9535   -1.9541 C.ar    1  UNL1        0.0014
     31 C          58.4565   95.1545   -2.8778 C.ar    1  UNL1        0.0013
     32 C          59.7722   94.4987   -2.5796 C.ar    1  UNL1        0.0153
     33 C          59.9232   93.6419   -1.3578 C.ar    1  UNL1        0.0552
     34 N          61.2389   92.9861   -1.0596 N.pl3   1  UNL1       -0.3560
     35 H          62.0033   93.1181   -1.6658 H       1  UNL1        0.1424
     36 H          61.3380   92.4237   -0.2576 H       1  UNL1        0.1424
@<TRIPOS>BOND
     1     8     7    1
     2     8     9    1
     3     9    10    1
     4    10     1    1
     5     1     2   ar
     6     2     3   ar
     7     3     4   ar
     8     4    24    1
     9    24    25    2
    10    24    26   am
    11    26    28    1
    12    28    29   ar
    13    29    30   ar
    14    30    31   ar
    15    31    32   ar
    16    32    33   ar
    17    33    34    1
    18     4     5   ar
    19     5     6   ar
    20    10    11    1
    21    11    12    1
    22    12    13    1
    23    13    14   am
    24    14    15    2
    25    14    16    1
    26    16    17    1
    27    17    18    1
    28    18    19   ar
    29    19    20   ar
    30    20    21   ar
    31    21    22   ar
    32    22    23   ar
    33    13     8    1
    34    23    18   ar
    35     6     1   ar
    36    33    28   ar
    37    26    27    1
    38    34    35    1
    39    34    36    1
@<TRIPOS>MOLECULE
*****
 36 39 0 0 0
SMALL
GASTEIGER

@<TRIPOS>ATOM
      1 C          60.2689   92.4137    2.9113 C.ar    1  UNL1        0.1318
      2 C          61.4154   91.6804    3.5420 C.ar    1  UNL1        0.0345
      3 C          61.2017   90.8968    4.8030 C.ar    1  UNL1        0.0090
      4 C          59.8415   90.8464    5.4334 C.ar    1  UNL1        0.0729
      5 C          58.6950   91.5798    4.8027 C.ar    1  UNL1        0.1048
      6 N          58.9087   92.3634    3.5416 N.ar    1  UNL1       -0.2290
      7 C          63.4124   94.0657   -0.8820 C.3     1  UNL1        0.0234
      8 C          62.0544   94.0234   -0.2464 C.3     1  UNL1        0.0984
      9 C          61.8406   93.2397    1.0146 C.3     1  UNL1        0.1120
     10 N          60.4826   93.1974    1.6502 N.pl3   1  UNL1       -0.2898
     11 C          59.3384   93.9387    1.0248 C.3     1  UNL1        0.1138
     12 C          59.5522   94.7223   -0.2363 C.3     1  UNL1        0.1181
     13 N          60.9102   94.7646   -0.8718 N.am    1  UNL1       -0.2442
     14 C          61.1239   95.5483   -2.1329 C.2     1  UNL1        0.4052
     15 O          62.4819   95.5906   -2.7685 O.2     1  UNL1       -0.2262
     16 O          59.9797   96.2895   -2.7584 O.3     1  UNL1       -0.4295
     17 C          59.1481   95.6295   -3.8181 C.3     1  UNL1        0.2367
     18 C          58.1169   94.6097   -3.4354 C.ar    1  UNL1        0.0213
     19 C          58.3430   93.1604   -3.7488 C.ar    1  UNL1       -0.0007
     20 C          57.3117   92.1405   -3.3661 C.ar    1  UNL1       -0.0002
     21 C          56.0543   92.5701   -2.6700 C.ar    1  UNL1       -0.0000
     22 C          55.8283   94.0195   -2.3566 C.ar    1  UNL1       -0.0002
     23 C          56.8595   95.0393   -2.7393 C.ar    1  UNL1       -0.0007
     24 C          59.6278   90.0628    6.6944 C.2     1  UNL1        0.2510
     25 O          58.4407   89.1546    6.8209 O.2     1  UNL1       -0.2698
     26 N          60.6011   90.1874    7.8289 N.am    1  UNL1       -0.2794
     27 H          61.3802   90.7835    7.7458 H       1  UNL1        0.1552
     28 C          60.3874   89.4038    9.0899 C.ar    1  UNL1        0.0636
     29 C          60.0720   90.1165   10.3715 C.ar    1  UNL1        0.0159
     30 C          59.8583   89.3328   11.6326 C.ar    1  UNL1        0.0014
     31 C          59.9601   87.8364   11.6120 C.ar    1  UNL1        0.0013
     32 C          60.2755   87.1237   10.3304 C.ar    1  UNL1        0.0153
     33 C          60.4892   87.9073    9.0694 C.ar    1  UNL1        0.0552
     34 N          60.8046   87.1946    7.7878 N.pl3   1  UNL1       -0.3560
     35 H          60.8714   86.2124    7.7743 H       1  UNL1        0.1424
     36 H          60.9449   87.7089    6.9601 H       1  UNL1        0.1424
@<TRIPOS>BOND
     1     8     7    1
     2     8     9    1
     3     9    10    1
     4    10     1    1
     5     1     2   ar
     6     2     3   ar
     7     3     4   ar
     8     4    24    1
     9    24    25    2
    10    24    26   am
    11    26    28    1
    12    28    29   ar
    13    29    30   ar
    14    30    31   ar
    15    31    32   ar
    16    32    33   ar
    17    33    34    1
    18     4     5   ar
    19     5     6   ar
    20    10    11    1
    21    11    12    1
    22    12    13    1
    23    13    14   am
    24    14    15    2
    25    14    16    1
    26    16    17    1
    27    17    18    1
    28    18    19   ar
    29    19    20   ar
    30    20    21   ar
    31    21    22   ar
    32    22    23   ar
    33    13     8    1
    34    23    18   ar
    35     6     1   ar
    36    33    28   ar
    37    26    27    1
    38    34    35    1
    39    34    36    1
@<TRIPOS>MOLECULE
*****
 36 39 0 0 0
SMALL
GASTEIGER

@<TRIPOS>ATOM
      1 C          61.2959   86.5369    9.8054 C.ar    1  UNL1        0.1318
      2 C          60.6934   86.0142    8.5350 C.ar    1  UNL1        0.0345
      3 C          60.1963   86.9703    7.4917 C.ar    1  UNL1        0.0090
      4 C          60.3016   88.4494    7.7187 C.ar    1  UNL1        0.0729
      5 C          60.9041   88.9722    8.9891 C.ar    1  UNL1        0.1048
      6 N          61.4012   88.0159   10.0324 N.ar    1  UNL1       -0.2290
      7 C          63.3440   81.9351   11.0814 C.3     1  UNL1        0.0234
      8 C          62.8171   83.2798   11.4867 C.3     1  UNL1        0.0984
      9 C          62.3200   84.2360   10.4435 C.3     1  UNL1        0.1120
     10 N          61.7931   85.5807   10.8487 N.pl3   1  UNL1       -0.2898
     11 C          61.7633   85.9691   12.2972 C.3     1  UNL1        0.1138
     12 C          62.2604   85.0129   13.3404 C.3     1  UNL1        0.1181
     13 N          62.7873   83.6682   12.9352 N.am    1  UNL1       -0.2442
     14 C          63.2845   82.7119   13.9785 C.2     1  UNL1        0.4052
     15 O          63.8114   81.3673   13.5733 O.2     1  UNL1       -0.2262
     16 O          63.2547   83.1004   15.4270 O.3     1  UNL1       -0.4295
     17 C          64.2859   84.0437   15.9719 C.3     1  UNL1        0.2367
     18 C          64.0041   85.5162   16.0206 C.ar    1  UNL1        0.0213
     19 C          63.1496   86.0804   17.1167 C.ar    1  UNL1       -0.0007
     20 C          62.8678   87.5529   17.1654 C.ar    1  UNL1       -0.0002
     21 C          63.4406   88.4612   16.1180 C.ar    1  UNL1       -0.0000
     22 C          64.2951   87.8969   15.0219 C.ar    1  UNL1       -0.0002
     23 C          64.5769   86.4244   14.9732 C.ar    1  UNL1       -0.0007
     24 C          59.8044   89.4056    6.6754 C.2     1  UNL1        0.2510
     25 O          58.3311   89.5583    6.4393 O.2     1  UNL1       -0.2698
     26 N          60.7807   90.2090    5.8682 N.am    1  UNL1       -0.2794
     27 H          61.7477   90.1087    6.0232 H       1  UNL1        0.1552
     28 C          60.2835   91.1651    4.8249 C.ar    1  UNL1        0.0636
     29 C          58.8457   91.5924    4.8234 C.ar    1  UNL1        0.0159
     30 C          58.3485   92.5486    3.7800 C.ar    1  UNL1        0.0014
     31 C          59.2893   93.0775    2.7382 C.ar    1  UNL1        0.0013
     32 C          60.7271   92.6503    2.7398 C.ar    1  UNL1        0.0153
     33 C          61.2243   91.6941    3.7831 C.ar    1  UNL1        0.0552
     34 N          62.6621   91.2669    3.7847 N.pl3   1  UNL1       -0.3560
     35 H          63.2796   91.6140    3.1010 H       1  UNL1        0.1424
     36 H          62.9884   90.6393    4.4695 H       1  UNL1        0.1424
@<TRIPOS>BOND
     1     8     7    1
     2     8     9    1
     3     9    10    1
     4    10     1    1
     5     1     2   ar
     6     2     3   ar
     7     3     4   ar
     8     4    24    1
     9    24    25    2
    10    24    26   am
    11    26    28    1
    12    28    29   ar
    13    29    30   ar
    14    30    31   ar
    15    31    32   ar
    16    32    33   ar
    17    33    34    1
    18     4     5   ar
    19     5     6   ar
    20    10    11    1
    21    11    12    1
    22    12    13    1
    23    13    14   am
    24    14    15    2
    25    14    16    1
    26    16    17    1
    27    17    18    1
    28    18    19   ar
    29    19    20   ar
    30    20    21   ar
    31    21    22   ar
    32    22    23   ar
    33    13     8    1
    34    23    18   ar
    35     6     1   ar
    36    33    28   ar
    37    26    27    1
    38    34    35    1
    39    34    36    1
@<TRIPOS>MOLECULE
*****
 36 39 0 0 0
SMALL
GASTEIGER

@<TRIPOS>ATOM
      1 C          64.5540   89.0519   13.8036 C.ar    1  UNL1        0.1318
      2 C          63.6294   88.6239   12.7027 C.ar    1  UNL1        0.0345
      3 C          63.0821   87.2275   12.6833 C.ar    1  UNL1        0.0090
      4 C          63.4594   86.2590   13.7649 C.ar    1  UNL1        0.0729
      5 C          64.3840   86.6870   14.8658 C.ar    1  UNL1        0.1048
      6 N          64.9313   88.0835   14.8851 N.ar    1  UNL1       -0.2290
      7 C          67.4653   92.7133   16.0661 C.3     1  UNL1        0.0234
      8 C          66.5570   92.2790   14.9542 C.3     1  UNL1        0.0984
      9 C          66.0097   90.8826   14.9348 C.3     1  UNL1        0.1120
     10 N          65.1014   90.4484   13.8229 N.pl3   1  UNL1       -0.2898
     11 C          64.7404   91.4106   12.7303 C.3     1  UNL1        0.1138
     12 C          65.2877   92.8070   12.7496 C.3     1  UNL1        0.1181
     13 N          66.1960   93.2412   13.8616 N.am    1  UNL1       -0.2442
     14 C          66.7433   94.6377   13.8809 C.2     1  UNL1        0.4052
     15 O          67.6516   95.0720   14.9928 O.2     1  UNL1       -0.2262
     16 O          66.3824   95.5999   12.7883 O.3     1  UNL1       -0.4295
     17 C          65.6243   95.1198   11.5862 C.3     1  UNL1        0.2367
     18 C          65.9320   95.6839   10.2309 C.ar    1  UNL1        0.0213
     19 C          67.3348   95.6408    9.7014 C.ar    1  UNL1       -0.0007
     20 C          67.6426   96.2050    8.3460 C.ar    1  UNL1       -0.0002
     21 C          66.5476   96.8123    7.5201 C.ar    1  UNL1       -0.0000
     22 C          65.1447   96.8554    8.0496 C.ar    1  UNL1       -0.0002
     23 C          64.8370   96.2912    9.4050 C.ar    1  UNL1       -0.0007
     24 C          62.9120   84.8626   13.7456 C.2     1  UNL1        0.2510
     25 O          61.6373   84.5466   14.4701 O.2     1  UNL1       -0.2698
     26 N          63.6395   83.7821   13.0017 N.am    1  UNL1       -0.2794
     27 H          64.4762   83.9895   12.5261 H       1  UNL1        0.1552
     28 C          63.0922   82.3857   12.9823 C.ar    1  UNL1        0.0636
     29 C          62.4186   81.8272   14.2007 C.ar    1  UNL1        0.0159
     30 C          61.8712   80.4307   14.1813 C.ar    1  UNL1        0.0014
     31 C          61.9975   79.5928   12.9436 C.ar    1  UNL1        0.0013
     32 C          62.6712   80.1513   11.7253 C.ar    1  UNL1        0.0153
     33 C          63.2185   81.5477   11.7446 C.ar    1  UNL1        0.0552
     34 N          63.8921   82.1062   10.5263 N.pl3   1  UNL1       -0.3560
     35 H          63.9750   81.5562    9.7139 H       1  UNL1        0.1424
     36 H          64.2513   83.0227   10.5390 H       1  UNL1        0.1424
@<TRIPOS>BOND
     1     8     7    1
     2     8     9    1
     3     9    10    1
     4    10     1    1
     5     1     2   ar
     6     2     3   ar
     7     3     4   ar
     8     4    24    1
     9    24    25    2
    10    24    26   am
    11    26    28    1
    12    28    29   ar
    13    29    30   ar
    14    30    31   ar
    15    31    32   ar
    16    32    33   ar
    17    33    34    1
    18     4     5   ar
    19     5     6   ar
    20    10    11    1
    21    11    12    1
    22    12    13    1
    23    13    14   am
    24    14    15    2
    25    14    16    1
    26    16    17    1
    27    17    18    1
    28    18    19   ar
    29    19    20   ar
    30    20    21   ar
    31    21    22   ar
    32    22    23   ar
    33    13     8    1
    34    23    18   ar
    35     6     1   ar
    36    33    28   ar
    37    26    27    1
    38    34    35    1
    39    34    36    1
@<TRIPOS>MOLECULE
*****
 36 39 0 0 0
SMALL
GASTEIGER

@<TRIPOS>ATOM
      1 C          64.0853   88.8315   13.5477 C.ar    1  UNL1        0.1318
      2 C          65.0771   89.6555   14.3142 C.ar    1  UNL1        0.0345
      3 C          65.5403   90.9728   13.7664 C.ar    1  UNL1        0.0090
      4 C          65.0117   91.4661   12.4521 C.ar    1  UNL1        0.0729
      5 C          64.0199   90.6421   11.6857 C.ar    1  UNL1        0.1048
      6 N          63.5567   89.3248   12.2335 N.ar    1  UNL1       -0.2290
      7 C          63.3308   85.6534   17.5888 C.3     1  UNL1        0.0234
      8 C          63.2449   85.9251   16.1162 C.3     1  UNL1        0.0984
      9 C          63.7081   87.2424   15.5683 C.3     1  UNL1        0.1120
     10 N          63.6221   87.5141   14.0956 N.pl3   1  UNL1       -0.2898
     11 C          63.0730   86.4686   13.1708 C.3     1  UNL1        0.1138
     12 C          62.6099   85.1513   13.7187 C.3     1  UNL1        0.1181
     13 N          62.6958   84.8796   15.1914 N.am    1  UNL1       -0.2442
     14 C          62.2326   83.5622   15.7392 C.2     1  UNL1        0.4052
     15 O          62.3185   83.2905   17.2119 O.2     1  UNL1       -0.2262
     16 O          61.6835   82.5167   14.8144 O.3     1  UNL1       -0.4295
     17 C          62.6070   81.5257   14.1700 C.3     1  UNL1        0.2367
     18 C          63.0968   81.7566   12.7712 C.ar    1  UNL1        0.0213
     19 C          63.9323   82.9625   12.4586 C.ar    1  UNL1       -0.0007
     20 C          64.4222   83.1935   11.0598 C.ar    1  UNL1       -0.0002
     21 C          64.0766   82.2185    9.9735 C.ar    1  UNL1       -0.0000
     22 C          63.2410   81.0126   10.2861 C.ar    1  UNL1       -0.0002
     23 C          62.7511   80.7817   11.6849 C.ar    1  UNL1       -0.0007
     24 C          65.4749   92.7834   11.9043 C.2     1  UNL1        0.2510
     25 O          65.5153   93.9921   12.7916 O.2     1  UNL1       -0.2698
     26 N          65.8977   92.8920   10.4692 N.am    1  UNL1       -0.2794
     27 H          65.8712   92.0987    9.8869 H       1  UNL1        0.1552
     28 C          66.3609   94.2093    9.9214 C.ar    1  UNL1        0.0636
     29 C          65.6607   95.4749   10.3190 C.ar    1  UNL1        0.0159
     30 C          66.1240   96.7922    9.7712 C.ar    1  UNL1        0.0014
     31 C          67.2874   96.8439    8.8258 C.ar    1  UNL1        0.0013
     32 C          67.9876   95.5784    8.4282 C.ar    1  UNL1        0.0153
     33 C          67.5244   94.2611    8.9760 C.ar    1  UNL1        0.0552
     34 N          68.2246   92.9955    8.5784 N.pl3   1  UNL1       -0.3560
     35 H          68.9882   93.0295    7.9579 H       1  UNL1        0.1424
     36 H          67.9205   92.1309    8.9379 H       1  UNL1        0.1424
@<TRIPOS>BOND
     1     8     7    1
     2     8     9    1
     3     9    10    1
     4    10     1    1
     5     1     2   ar
     6     2     3   ar
     7     3     4   ar
     8     4    24    1
     9    24    25    2
    10    24    26   am
    11    26    28    1
    12    28    29   ar
    13    29    30   ar
    14    30    31   ar
    15    31    32   ar
    16    32    33   ar
    17    33    34    1
    18     4     5   ar
    19     5     6   ar
    20    10    11    1
    21    11    12    1
    22    12    13    1
    23    13    14   am
    24    14    15    2
    25    14    16    1
    26    16    17    1
    27    17    18    1
    28    18    19   ar
    29    19    20   ar
    30    20    21   ar
    31    21    22   ar
    32    22    23   ar
    33    13     8    1
    34    23    18   ar
    35     6     1   ar
    36    33    28   ar
    37    26    27    1
    38    34    35    1
    39    34    36    1
@<TRIPOS>MOLECULE
*****
 36 39 0 0 0
SMALL
GASTEIGER

@<TRIPOS>ATOM
      1 C          60.3933   88.1552    8.3163 C.ar    1  UNL1        0.1318
      2 C          60.7557   88.6198    9.6958 C.ar    1  UNL1        0.0345
      3 C          61.2699   87.6383   10.7068 C.ar    1  UNL1        0.0090
      4 C          61.4218   86.1922   10.3384 C.ar    1  UNL1        0.0729
      5 C          61.0595   85.7276    8.9590 C.ar    1  UNL1        0.1048
      6 N          60.5452   86.7091    7.9479 N.ar    1  UNL1       -0.2290
      7 C          56.4309   90.2407    5.6800 C.3     1  UNL1        0.0234
      8 C          57.8979   90.1794    5.9871 C.3     1  UNL1        0.0984
      9 C          58.4121   89.1980    6.9981 C.3     1  UNL1        0.1120
     10 N          59.8791   89.1367    7.3052 N.pl3   1  UNL1       -0.2898
     11 C          60.8318   90.0570    6.6014 C.3     1  UNL1        0.1138
     12 C          60.3175   91.0385    5.5904 C.3     1  UNL1        0.1181
     13 N          58.8506   91.0997    5.2832 N.am    1  UNL1       -0.2442
     14 C          58.3363   92.0813    4.2722 C.2     1  UNL1        0.4052
     15 O          56.8694   92.1425    3.9650 O.2     1  UNL1       -0.2262
     16 O          59.2890   93.0015    3.5683 O.3     1  UNL1       -0.4295
     17 C          59.7373   92.6911    2.1709 C.3     1  UNL1        0.2367
     18 C          61.1742   92.8809    1.7846 C.ar    1  UNL1        0.0213
     19 C          61.5241   93.6926    0.5728 C.ar    1  UNL1       -0.0007
     20 C          62.9611   93.8824    0.1864 C.ar    1  UNL1       -0.0002
     21 C          64.0481   93.2605    1.0120 C.ar    1  UNL1       -0.0000
     22 C          63.6981   92.4488    2.2240 C.ar    1  UNL1       -0.0002
     23 C          62.2612   92.2590    2.6102 C.ar    1  UNL1       -0.0007
     24 C          61.9360   85.2107   11.3495 C.2     1  UNL1        0.2510
     25 O          62.2536   85.6663   12.7428 O.2     1  UNL1       -0.2698
     26 N          62.1327   83.7736   10.9671 N.am    1  UNL1       -0.2794
     27 H          61.9243   83.4746   10.0526 H       1  UNL1        0.1552
     28 C          62.6469   82.7922   11.9782 C.ar    1  UNL1        0.0636
     29 C          61.6837   81.9900   12.8020 C.ar    1  UNL1        0.0159
     30 C          62.1980   81.0085   13.8131 C.ar    1  UNL1        0.0014
     31 C          63.6754   80.8292   14.0003 C.ar    1  UNL1        0.0013
     32 C          64.6386   81.6314   13.1764 C.ar    1  UNL1        0.0153
     33 C          64.1244   82.6129   12.1654 C.ar    1  UNL1        0.0552
     34 N          65.0876   83.4151   11.3415 N.pl3   1  UNL1       -0.3560
     35 H          66.0573   83.2974   11.4644 H       1  UNL1        0.1424
     36 H          64.7501   84.0593   10.6780 H       1  UNL1        0.1424
@<TRIPOS>BOND
     1     8     7    1
     2     8     9    1
     3     9    10    1
     4    10     1    1
     5     1     2   ar
     6     2     3   ar
     7     3     4   ar
     8     4    24    1
     9    24    25    2
    10    24    26   am
    11    26    28    1
    12    28    29   ar
    13    29    30   ar
    14    30    31   ar
    15    31    32   ar
    16    32    33   ar
    17    33    34    1
    18     4     5   ar
    19     5     6   ar
    20    10    11    1
    21    11    12    1
    22    12    13    1
    23    13    14   am
    24    14    15    2
    25    14    16    1
    26    16    17    1
    27    17    18    1
    28    18    19   ar
    29    19    20   ar
    30    20    21   ar
    31    21    22   ar
    32    22    23   ar
    33    13     8    1
    34    23    18   ar
    35     6     1   ar
    36    33    28   ar
    37    26    27    1
    38    34    35    1
    39    34    36    1
@<TRIPOS>MOLECULE
*****
 36 39 0 0 0
SMALL
GASTEIGER

@<TRIPOS>ATOM
      1 C          61.6301   87.5349   10.2922 C.ar    1  UNL1        0.1318
      2 C          61.7793   89.0248   10.2035 C.ar    1  UNL1        0.0345
      3 C          61.2438   89.7626    9.0123 C.ar    1  UNL1        0.0090
      4 C          60.5592   89.0104    7.9097 C.ar    1  UNL1        0.0729
      5 C          60.4101   87.5204    7.9984 C.ar    1  UNL1        0.1048
      6 N          60.9455   86.7827    9.1897 N.ar    1  UNL1       -0.2290
      7 C          64.4428   87.4812   14.6610 C.3     1  UNL1        0.0234
      8 C          63.5719   86.7703   13.6678 C.3     1  UNL1        0.0984
      9 C          63.0364   87.5080   12.4766 C.3     1  UNL1        0.1120
     10 N          62.1656   86.7971   11.4835 N.pl3   1  UNL1       -0.2898
     11 C          61.8302   85.3486   11.6816 C.3     1  UNL1        0.1138
     12 C          62.3657   84.6110   12.8728 C.3     1  UNL1        0.1181
     13 N          63.2365   85.3218   13.8659 N.am    1  UNL1       -0.2442
     14 C          63.7720   84.5841   15.0572 C.2     1  UNL1        0.4052
     15 O          64.6429   85.2949   16.0504 O.2     1  UNL1       -0.2262
     16 O          63.4366   83.1356   15.2553 O.3     1  UNL1       -0.4295
     17 C          64.2173   82.0791   14.5310 C.3     1  UNL1        0.2367
     18 C          63.9107   81.7722   13.0951 C.ar    1  UNL1        0.0213
     19 C          64.5762   82.5549   12.0023 C.ar    1  UNL1       -0.0007
     20 C          64.2697   82.2480   10.5663 C.ar    1  UNL1       -0.0002
     21 C          63.2976   81.1583   10.2233 C.ar    1  UNL1       -0.0000
     22 C          62.6321   80.3756   11.3162 C.ar    1  UNL1       -0.0002
     23 C          62.9386   80.6825   12.7521 C.ar    1  UNL1       -0.0007
     24 C          60.0238   89.7481    6.7185 C.2     1  UNL1        0.2510
     25 O          58.5740   89.6297    6.3525 O.2     1  UNL1       -0.2698
     26 N          60.9381   90.6043    5.8933 N.am    1  UNL1       -0.2794
     27 H          61.8897   90.6820    6.1336 H       1  UNL1        0.1552
     28 C          60.4027   91.3420    4.7021 C.ar    1  UNL1        0.0636
     29 C          58.9459   91.6918    4.6292 C.ar    1  UNL1        0.0159
     30 C          58.4105   92.4296    3.4379 C.ar    1  UNL1        0.0014
     31 C          59.3319   92.8175    2.3196 C.ar    1  UNL1        0.0013
     32 C          60.7887   92.4677    2.3926 C.ar    1  UNL1        0.0153
     33 C          61.3241   91.7300    3.5838 C.ar    1  UNL1        0.0552
     34 N          62.7809   91.3802    3.6567 N.pl3   1  UNL1       -0.3560
     35 H          63.3857   91.6348    2.9228 H       1  UNL1        0.1424
     36 H          63.1323   90.8959    4.4386 H       1  UNL1        0.1424
@<TRIPOS>BOND
     1     8     7    1
     2     8     9    1
     3     9    10    1
     4    10     1    1
     5     1     2   ar
     6     2     3   ar
     7     3     4   ar
     8     4    24    1
     9    24    25    2
    10    24    26   am
    11    26    28    1
    12    28    29   ar
    13    29    30   ar
    14    30    31   ar
    15    31    32   ar
    16    32    33   ar
    17    33    34    1
    18     4     5   ar
    19     5     6   ar
    20    10    11    1
    21    11    12    1
    22    12    13    1
    23    13    14   am
    24    14    15    2
    25    14    16    1
    26    16    17    1
    27    17    18    1
    28    18    19   ar
    29    19    20   ar
    30    20    21   ar
    31    21    22   ar
    32    22    23   ar
    33    13     8    1
    34    23    18   ar
    35     6     1   ar
    36    33    28   ar
    37    26    27    1
    38    34    35    1
    39    34    36    1
