@<TRIPOS>MOLECULE
*****
 35 38 0 0 0
SMALL
GASTEIGER

@<TRIPOS>ATOM
      1 C          61.6466   88.6976   11.1040 C.ar    1  UNL1        0.1722
      2 C          62.3071   87.3862   10.7975 C.ar    1  UNL1        0.0443
      3 C          61.9173   86.6192    9.5687 C.ar    1  UNL1        0.0526
      4 C          62.5777   85.3078    9.2623 C.ar    1  UNL1        0.1355
      5 N          62.1880   84.5408    8.0336 N.ar    1  UNL1       -0.2089
      6 C          61.1377   85.0852    7.1114 C.ar    1  UNL1        0.2000
      7 N          60.4773   86.3966    7.4178 N.ar    1  UNL1       -0.2238
      8 C          60.8670   87.1636    8.6465 C.ar    1  UNL1        0.0890
      9 C          60.2065   88.4750    8.9530 C.ar    1  UNL1        0.0593
     10 C          60.5963   89.2420   10.1817 C.ar    1  UNL1        0.1739
     11 N          63.6281   84.7634   10.1846 N.pl3   1  UNL1       -0.2961
     12 H          64.5812   84.9107    9.9868 H       1  UNL1        0.1537
     13 C          63.2261   83.9945   11.4082 C.ar    1  UNL1        0.0780
     14 C          62.9229   84.7213   12.6848 C.ar    1  UNL1        0.0170
     15 C          62.5210   83.9525   13.9084 C.ar    1  UNL1        0.0023
     16 C          62.4223   82.4567   13.8555 C.ar    1  UNL1        0.0138
     17 C          62.7255   81.7297   12.5788 C.ar    1  UNL1        0.0863
     18 CL         62.6268   80.2339   12.5259 Cl      1  UNL1       -0.0799
     19 C          63.1274   82.4986   11.3552 C.ar    1  UNL1        0.1639
     20 F          63.4306   81.7717   10.0787 F       1  UNL1       -0.2020
     21 O          59.9358   90.5535   10.4881 O.3     1  UNL1       -0.4683
     22 C          59.0239   90.6752   11.6729 C.3     1  UNL1        0.2526
     23 O          62.0363   89.4646   12.3327 O.3     1  UNL1       -0.4760
     24 N          65.4125   92.4345   12.1547 N.3     1  UNL1       -0.2648
     25 C          64.6325   92.1105   10.9151 C.3     1  UNL1        0.0762
     26 C          63.5071   91.1206   10.9744 C.3     1  UNL1        0.0609
     27 C          63.1618   90.4546   12.2733 C.3     1  UNL1        0.1688
     28 C          63.9418   90.7786   13.5129 C.3     1  UNL1        0.0609
     29 C          65.0671   91.7685   13.4536 C.3     1  UNL1        0.0762
     30 C          66.5379   93.4244   12.0953 C.3     1  UNL1        0.1584
     31 C          65.4318   96.6000    9.9877 C.3     1  UNL1        0.1107
     32 N          65.4352   95.5223   11.0311 N.am    1  UNL1       -0.3015
     33 C          66.5346   94.5021   11.0520 C.2     1  UNL1        0.2389
     34 O          67.6306   94.5595   10.0296 O.2     1  UNL1       -0.2736
     35 H          64.7158   95.4846   11.7022 H       1  UNL1        0.1495
@<TRIPOS>BOND
     1    31    32    1
     2    32    33   am
     3    33    34    2
     4    33    30    1
     5    30    24    1
     6    24    25    1
     7    25    26    1
     8    26    27    1
     9    27    23    1
    10    23     1    1
    11     1     2   ar
    12     2     3   ar
    13     3     4   ar
    14     4    11    1
    15    11    13    1
    16    13    14   ar
    17    14    15   ar
    18    15    16   ar
    19    16    17   ar
    20    17    18    1
    21    17    19   ar
    22    19    20    1
    23     4     5   ar
    24     5     6   ar
    25     6     7   ar
    26     7     8   ar
    27     8     9   ar
    28     9    10   ar
    29    10    21    1
    30    21    22    1
    31    27    28    1
    32    28    29    1
    33    29    24    1
    34    10     1   ar
    35     8     3   ar
    36    19    13   ar
    37    32    35    1
    38    11    12    1
@<TRIPOS>MOLECULE
*****
 35 38 0 0 0
SMALL
GASTEIGER

@<TRIPOS>ATOM
      1 C          61.6869   88.5953   11.1138 C.ar    1  UNL1        0.1722
      2 C          62.3588   87.2973   10.7764 C.ar    1  UNL1        0.0443
      3 C          61.9750   86.5558    9.5301 C.ar    1  UNL1        0.0526
      4 C          62.6469   85.2579    9.1928 C.ar    1  UNL1        0.1355
      5 N          62.2633   84.5164    7.9466 N.ar    1  UNL1       -0.2089
      6 C          61.2077   85.0730    7.0378 C.ar    1  UNL1        0.2000
      7 N          60.5357   86.3709    7.3752 N.ar    1  UNL1       -0.2238
      8 C          60.9194   87.1124    8.6213 C.ar    1  UNL1        0.0890
      9 C          60.2475   88.4103    8.9587 C.ar    1  UNL1        0.0593
     10 C          60.6312   89.1518   10.2049 C.ar    1  UNL1        0.1739
     11 N          63.7026   84.7014   10.1016 N.pl3   1  UNL1       -0.2961
     12 H          64.6091   85.0854   10.0963 H       1  UNL1        0.1537
     13 C          63.3770   83.5598   11.0186 C.ar    1  UNL1        0.0780
     14 C          63.4026   82.1519   10.5018 C.ar    1  UNL1        0.0170
     15 C          63.0770   81.0103   11.4187 C.ar    1  UNL1        0.0023
     16 C          62.7259   81.2767   12.8525 C.ar    1  UNL1        0.0138
     17 C          62.7004   82.6846   13.3694 C.ar    1  UNL1        0.0863
     18 CL         62.3493   82.9509   14.8032 Cl      1  UNL1       -0.0799
     19 C          63.0259   83.8262   12.4524 C.ar    1  UNL1        0.1639
     20 F          63.0004   85.2341   12.9692 F       1  UNL1       -0.2020
     21 O          59.9593   90.4497   10.5423 O.3     1  UNL1       -0.4683
     22 C          59.0218   90.5275   11.7106 C.3     1  UNL1        0.2526
     23 O          62.0705   89.3367   12.3599 O.3     1  UNL1       -0.4760
     24 N          65.4061   92.3551   12.2452 N.3     1  UNL1       -0.2648
     25 C          65.0782   91.6480   13.5268 C.3     1  UNL1        0.0762
     26 C          63.9664   90.6419   13.5651 C.3     1  UNL1        0.0609
     27 C          63.1824   90.3429   12.3217 C.3     1  UNL1        0.1688
     28 C          63.5103   91.0500   11.0401 C.3     1  UNL1        0.0609
     29 C          64.6221   92.0561   11.0019 C.3     1  UNL1        0.0762
     30 C          66.5180   93.3613   12.2070 C.3     1  UNL1        0.1584
     31 C          65.4742   96.5495   10.0867 C.3     1  UNL1        0.1107
     32 N          65.4635   95.4833   11.1418 N.am    1  UNL1       -0.3015
     33 C          66.5288   94.4274   11.1519 C.2     1  UNL1        0.2389
     34 O          67.6049   94.4376   10.1070 O.2     1  UNL1       -0.2736
     35 H          64.7572   95.4766   11.8276 H       1  UNL1        0.1495
@<TRIPOS>BOND
     1    31    32    1
     2    32    33   am
     3    33    34    2
     4    33    30    1
     5    30    24    1
     6    24    25    1
     7    25    26    1
     8    26    27    1
     9    27    23    1
    10    23     1    1
    11     1     2   ar
    12     2     3   ar
    13     3     4   ar
    14     4    11    1
    15    11    13    1
    16    13    14   ar
    17    14    15   ar
    18    15    16   ar
    19    16    17   ar
    20    17    18    1
    21    17    19   ar
    22    19    20    1
    23     4     5   ar
    24     5     6   ar
    25     6     7   ar
    26     7     8   ar
    27     8     9   ar
    28     9    10   ar
    29    10    21    1
    30    21    22    1
    31    27    28    1
    32    28    29    1
    33    29    24    1
    34    10     1   ar
    35     8     3   ar
    36    19    13   ar
    37    32    35    1
    38    11    12    1
@<TRIPOS>MOLECULE
*****
 35 38 0 0 0
SMALL
GASTEIGER

@<TRIPOS>ATOM
      1 C          61.5333   88.4699   11.0917 C.ar    1  UNL1        0.1722
      2 C          62.2642   87.2015   10.7643 C.ar    1  UNL1        0.0443
      3 C          61.9657   86.4719    9.4881 C.ar    1  UNL1        0.0526
      4 C          62.6965   85.2036    9.1608 C.ar    1  UNL1        0.1355
      5 N          62.3980   84.4739    7.8846 N.ar    1  UNL1       -0.2089
      6 C          61.3687   85.0127    6.9359 C.ar    1  UNL1        0.2000
      7 N          60.6379   86.2810    7.2632 N.ar    1  UNL1       -0.2238
      8 C          60.9363   87.0106    8.5393 C.ar    1  UNL1        0.0890
      9 C          60.2055   88.2790    8.8667 C.ar    1  UNL1        0.0593
     10 C          60.5040   89.0086   10.1428 C.ar    1  UNL1        0.1739
     11 N          63.7259   84.6648   10.1096 N.pl3   1  UNL1       -0.2961
     12 H          64.6248   85.0652   10.1400 H       1  UNL1        0.1537
     13 C          63.3856   83.5161   11.0122 C.ar    1  UNL1        0.0780
     14 C          63.4115   82.1130   10.4825 C.ar    1  UNL1        0.0170
     15 C          63.0713   80.9642   11.3851 C.ar    1  UNL1        0.0023
     16 C          62.7051   81.2185   12.8172 C.ar    1  UNL1        0.0138
     17 C          62.6792   82.6217   13.3470 C.ar    1  UNL1        0.0863
     18 CL         62.3131   82.8761   14.7791 Cl      1  UNL1       -0.0799
     19 C          63.0195   83.7705   12.4444 C.ar    1  UNL1        0.1639
     20 F          62.9936   85.1736   12.9741 F       1  UNL1       -0.2020
     21 O          59.7731   90.2769   10.4702 O.3     1  UNL1       -0.4683
     22 C          58.9796   90.3792   11.7389 C.3     1  UNL1        0.2526
     23 O          61.8318   89.1995   12.3678 O.3     1  UNL1       -0.4760
     24 N          65.2734   92.0927   12.5534 N.3     1  UNL1       -0.2648
     25 C          64.4876   91.9424   11.2846 C.3     1  UNL1        0.0762
     26 C          63.3404   90.9780   11.2227 C.3     1  UNL1        0.0609
     27 C          62.9791   90.1639   12.4296 C.3     1  UNL1        0.1688
     28 C          63.7649   90.3142   13.6984 C.3     1  UNL1        0.0609
     29 C          64.9121   91.2786   13.7603 C.3     1  UNL1        0.0762
     30 C          66.4207   93.0571   12.6153 C.3     1  UNL1        0.1584
     31 C          68.5787   93.3177   15.9356 C.3     1  UNL1        0.1107
     32 N          67.4742   93.5286   14.9428 N.am    1  UNL1       -0.3015
     33 C          67.5251   92.8462   13.6080 C.2     1  UNL1        0.2389
     34 O          68.6805   91.9528   13.2660 O.2     1  UNL1       -0.2736
     35 H          66.7159   94.1150   15.1673 H       1  UNL1        0.1495
@<TRIPOS>BOND
     1    31    32    1
     2    32    33   am
     3    33    34    2
     4    33    30    1
     5    30    24    1
     6    24    25    1
     7    25    26    1
     8    26    27    1
     9    27    23    1
    10    23     1    1
    11     1     2   ar
    12     2     3   ar
    13     3     4   ar
    14     4    11    1
    15    11    13    1
    16    13    14   ar
    17    14    15   ar
    18    15    16   ar
    19    16    17   ar
    20    17    18    1
    21    17    19   ar
    22    19    20    1
    23     4     5   ar
    24     5     6   ar
    25     6     7   ar
    26     7     8   ar
    27     8     9   ar
    28     9    10   ar
    29    10    21    1
    30    21    22    1
    31    27    28    1
    32    28    29    1
    33    29    24    1
    34    10     1   ar
    35     8     3   ar
    36    19    13   ar
    37    32    35    1
    38    11    12    1
@<TRIPOS>MOLECULE
*****
 35 38 0 0 0
SMALL
GASTEIGER

@<TRIPOS>ATOM
      1 C          64.0858   90.0040   13.9027 C.ar    1  UNL1        0.1722
      2 C          65.2915   90.6495   13.2864 C.ar    1  UNL1        0.0443
      3 C          66.1118   91.6206   14.0827 C.ar    1  UNL1        0.0526
      4 C          67.3174   92.2661   13.4663 C.ar    1  UNL1        0.1355
      5 N          68.1377   93.2372   14.2626 N.ar    1  UNL1       -0.2089
      6 C          67.7523   93.5629   15.6751 C.ar    1  UNL1        0.2000
      7 N          66.5467   92.9174   16.2915 N.ar    1  UNL1       -0.2238
      8 C          65.7264   91.9463   15.4952 C.ar    1  UNL1        0.0890
      9 C          64.5208   91.3008   16.1116 C.ar    1  UNL1        0.0593
     10 C          63.7005   90.3297   15.3154 C.ar    1  UNL1        0.1739
     11 N          67.7027   91.9404   12.0537 N.pl3   1  UNL1       -0.2961
     12 H          68.1039   91.0666   11.8419 H       1  UNL1        0.1537
     13 C          67.4768   92.9459   10.9638 C.ar    1  UNL1        0.0780
     14 C          68.2287   92.8324    9.6709 C.ar    1  UNL1        0.0170
     15 C          68.0027   93.8379    8.5811 C.ar    1  UNL1        0.0023
     16 C          67.0249   94.9571    8.7841 C.ar    1  UNL1        0.0138
     17 C          66.2729   95.0707   10.0771 C.ar    1  UNL1        0.0863
     18 CL         65.2951   96.1899   10.2802 Cl      1  UNL1       -0.0799
     19 C          66.4989   94.0651   11.1669 C.ar    1  UNL1        0.1639
     20 F          65.7470   94.1787   12.4599 F       1  UNL1       -0.2020
     21 O          62.4949   89.6843   15.9317 O.3     1  UNL1       -0.4683
     22 C          62.6650   88.6025   16.9568 C.3     1  UNL1        0.2526
     23 O          63.2656   89.0329   13.1065 O.3     1  UNL1       -0.4760
     24 N          63.9293   84.6075   13.5815 N.3     1  UNL1       -0.2648
     25 C          63.0925   85.1231   12.4484 C.3     1  UNL1        0.0762
     26 C          62.8712   86.5981   12.2901 C.3     1  UNL1        0.0609
     27 C          63.4868   87.5577   13.2648 C.3     1  UNL1        0.1688
     28 C          64.3236   87.0422   14.3979 C.3     1  UNL1        0.0609
     29 C          64.5449   85.5671   14.5563 C.3     1  UNL1        0.0762
     30 C          64.1505   83.1324   13.7399 C.3     1  UNL1        0.1584
     31 C          60.9603   80.8170   14.1996 C.3     1  UNL1        0.1107
     32 N          62.0696   81.7790   14.5065 N.am    1  UNL1       -0.3015
     33 C          63.0413   82.1704   13.4329 C.2     1  UNL1        0.2389
     34 O          62.9038   81.6000   12.0525 O.2     1  UNL1       -0.2736
     35 H          62.1599   82.1534   15.4125 H       1  UNL1        0.1495
@<TRIPOS>BOND
     1    31    32    1
     2    32    33   am
     3    33    34    2
     4    33    30    1
     5    30    24    1
     6    24    25    1
     7    25    26    1
     8    26    27    1
     9    27    23    1
    10    23     1    1
    11     1     2   ar
    12     2     3   ar
    13     3     4   ar
    14     4    11    1
    15    11    13    1
    16    13    14   ar
    17    14    15   ar
    18    15    16   ar
    19    16    17   ar
    20    17    18    1
    21    17    19   ar
    22    19    20    1
    23     4     5   ar
    24     5     6   ar
    25     6     7   ar
    26     7     8   ar
    27     8     9   ar
    28     9    10   ar
    29    10    21    1
    30    21    22    1
    31    27    28    1
    32    28    29    1
    33    29    24    1
    34    10     1   ar
    35     8     3   ar
    36    19    13   ar
    37    32    35    1
    38    11    12    1
@<TRIPOS>MOLECULE
*****
 35 38 0 0 0
SMALL
GASTEIGER

@<TRIPOS>ATOM
      1 C          61.8727   87.3339   11.5005 C.ar    1  UNL1        0.1722
      2 C          62.8873   86.7471   12.4366 C.ar    1  UNL1        0.0443
      3 C          63.2707   85.3018   12.3168 C.ar    1  UNL1        0.0526
      4 C          64.2853   84.7150   13.2529 C.ar    1  UNL1        0.1355
      5 N          64.6687   83.2698   13.1332 N.ar    1  UNL1       -0.2089
      6 C          64.0375   82.4114   12.0775 C.ar    1  UNL1        0.2000
      7 N          63.0229   82.9982   11.1414 N.ar    1  UNL1       -0.2238
      8 C          62.6395   84.4434   11.2611 C.ar    1  UNL1        0.0890
      9 C          61.6249   85.0302   10.3250 C.ar    1  UNL1        0.0593
     10 C          61.2415   86.4754   10.4447 C.ar    1  UNL1        0.1739
     11 N          64.9165   85.5735   14.3087 N.pl3   1  UNL1       -0.2961
     12 H          65.8858   85.7448   14.2893 H       1  UNL1        0.1537
     13 C          64.0708   86.1709   15.3941 C.ar    1  UNL1        0.0780
     14 C          63.2335   85.2836   16.2666 C.ar    1  UNL1        0.0170
     15 C          62.3878   85.8810   17.3520 C.ar    1  UNL1        0.0023
     16 C          62.3795   87.3658   17.5647 C.ar    1  UNL1        0.0138
     17 C          63.2169   88.2532   16.6921 C.ar    1  UNL1        0.0863
     18 CL         63.2085   89.7380   16.9049 Cl      1  UNL1       -0.0799
     19 C          64.0625   87.6558   15.6068 C.ar    1  UNL1        0.1639
     20 F          64.8999   88.5432   14.7342 F       1  UNL1       -0.2020
     21 O          60.2269   87.0622    9.5086 O.3     1  UNL1       -0.4683
     22 C          60.0221   86.4590    8.1506 C.3     1  UNL1        0.2526
     23 O          61.4893   88.7791   11.6202 O.3     1  UNL1       -0.4760
     24 N          64.6801   91.9296   11.9984 N.3     1  UNL1       -0.2648
     25 C          64.1968   91.2014   13.2175 C.3     1  UNL1        0.0762
     26 C          63.1332   90.1513   13.0915 C.3     1  UNL1        0.0609
     27 C          62.5529   89.8293   11.7463 C.3     1  UNL1        0.1688
     28 C          63.0362   90.5575   10.5272 C.3     1  UNL1        0.0609
     29 C          64.0998   91.6076   10.6533 C.3     1  UNL1        0.0762
     30 C          65.7437   92.9798   12.1246 C.3     1  UNL1        0.1584
     31 C          67.6403   93.5299   15.5670 C.3     1  UNL1        0.1107
     32 N          66.6059   93.6361   14.4859 N.am    1  UNL1       -0.3015
     33 C          66.7781   92.8736   13.2057 C.2     1  UNL1        0.2389
     34 O          67.9847   92.0049   13.0065 O.2     1  UNL1       -0.2736
     35 H          65.8140   94.2062   14.6165 H       1  UNL1        0.1495
@<TRIPOS>BOND
     1    31    32    1
     2    32    33   am
     3    33    34    2
     4    33    30    1
     5    30    24    1
     6    24    25    1
     7    25    26    1
     8    26    27    1
     9    27    23    1
    10    23     1    1
    11     1     2   ar
    12     2     3   ar
    13     3     4   ar
    14     4    11    1
    15    11    13    1
    16    13    14   ar
    17    14    15   ar
    18    15    16   ar
    19    16    17   ar
    20    17    18    1
    21    17    19   ar
    22    19    20    1
    23     4     5   ar
    24     5     6   ar
    25     6     7   ar
    26     7     8   ar
    27     8     9   ar
    28     9    10   ar
    29    10    21    1
    30    21    22    1
    31    27    28    1
    32    28    29    1
    33    29    24    1
    34    10     1   ar
    35     8     3   ar
    36    19    13   ar
    37    32    35    1
    38    11    12    1
@<TRIPOS>MOLECULE
*****
 35 38 0 0 0
SMALL
GASTEIGER

@<TRIPOS>ATOM
      1 C          64.1828   90.4704   14.8645 C.ar    1  UNL1        0.1722
      2 C          63.2782   90.2710   13.6847 C.ar    1  UNL1        0.0443
      3 C          63.5568   90.9873   12.3965 C.ar    1  UNL1        0.0526
      4 C          62.6522   90.7879   11.2167 C.ar    1  UNL1        0.1355
      5 N          62.9307   91.5042    9.9285 N.ar    1  UNL1       -0.2089
      6 C          64.1138   92.4199    9.8202 C.ar    1  UNL1        0.2000
      7 N          65.0184   92.6193   11.0001 N.ar    1  UNL1       -0.2238
      8 C          64.7399   91.9030   12.2882 C.ar    1  UNL1        0.0890
      9 C          65.6445   92.1024   13.4680 C.ar    1  UNL1        0.0593
     10 C          65.3660   91.3861   14.7561 C.ar    1  UNL1        0.1739
     11 N          61.4691   89.8721   11.3250 N.pl3   1  UNL1       -0.2961
     12 H          60.7593   90.0604   11.9807 H       1  UNL1        0.1537
     13 C          61.3675   88.6695   10.4343 C.ar    1  UNL1        0.0780
     14 C          60.4875   88.7076    9.2202 C.ar    1  UNL1        0.0170
     15 C          60.3859   87.5050    8.3295 C.ar    1  UNL1        0.0023
     16 C          61.1643   86.2643    8.6529 C.ar    1  UNL1        0.0138
     17 C          62.0444   86.2261    9.8671 C.ar    1  UNL1        0.0863
     18 CL         62.8228   84.9854   10.1905 Cl      1  UNL1       -0.0799
     19 C          62.1460   87.4287   10.7578 C.ar    1  UNL1        0.1639
     20 F          63.0260   87.3906   11.9719 F       1  UNL1       -0.2020
     21 O          66.2705   91.5855   15.9360 O.3     1  UNL1       -0.4683
     22 C          67.1051   92.8276   16.0397 C.3     1  UNL1        0.2526
     23 O          63.9043   89.7541   16.1526 O.3     1  UNL1       -0.4760
     24 N          63.1438   85.3189   16.1419 N.3     1  UNL1       -0.2648
     25 C          62.5159   86.1849   17.1934 C.3     1  UNL1        0.0762
     26 C          62.7694   87.6633   17.1970 C.3     1  UNL1        0.0609
     27 C          63.6508   88.2756   16.1491 C.3     1  UNL1        0.1688
     28 C          64.2786   87.4096   15.0975 C.3     1  UNL1        0.0609
     29 C          64.0251   85.9312   15.0939 C.3     1  UNL1        0.0762
     30 C          62.8902   83.8404   16.1383 C.3     1  UNL1        0.1584
     31 C          61.8562   80.9800   13.5890 C.3     1  UNL1        0.1107
     32 N          62.2447   81.6714   14.8623 N.am    1  UNL1       -0.3015
     33 C          62.5018   83.1491   14.8651 C.2     1  UNL1        0.2389
     34 O          62.3704   83.9356   13.5946 O.2     1  UNL1       -0.2736
     35 H          62.3309   81.1552   15.6962 H       1  UNL1        0.1495
@<TRIPOS>BOND
     1    31    32    1
     2    32    33   am
     3    33    34    2
     4    33    30    1
     5    30    24    1
     6    24    25    1
     7    25    26    1
     8    26    27    1
     9    27    23    1
    10    23     1    1
    11     1     2   ar
    12     2     3   ar
    13     3     4   ar
    14     4    11    1
    15    11    13    1
    16    13    14   ar
    17    14    15   ar
    18    15    16   ar
    19    16    17   ar
    20    17    18    1
    21    17    19   ar
    22    19    20    1
    23     4     5   ar
    24     5     6   ar
    25     6     7   ar
    26     7     8   ar
    27     8     9   ar
    28     9    10   ar
    29    10    21    1
    30    21    22    1
    31    27    28    1
    32    28    29    1
    33    29    24    1
    34    10     1   ar
    35     8     3   ar
    36    19    13   ar
    37    32    35    1
    38    11    12    1
@<TRIPOS>MOLECULE
*****
 35 38 0 0 0
SMALL
GASTEIGER

@<TRIPOS>ATOM
      1 C          63.7415   86.4609   14.9131 C.ar    1  UNL1        0.1722
      2 C          63.6531   86.0264   13.4801 C.ar    1  UNL1        0.0443
      3 C          63.2130   84.6321   13.1450 C.ar    1  UNL1        0.0526
      4 C          63.1245   84.1976   11.7120 C.ar    1  UNL1        0.1355
      5 N          62.6845   82.8034   11.3768 N.ar    1  UNL1       -0.2089
      6 C          62.3329   81.8436   12.4746 C.ar    1  UNL1        0.2000
      7 N          62.4213   82.2781   13.9076 N.ar    1  UNL1       -0.2238
      8 C          62.8614   83.6723   14.2428 C.ar    1  UNL1        0.0890
      9 C          62.9499   84.1068   15.6757 C.ar    1  UNL1        0.0593
     10 C          63.3899   85.5010   16.0109 C.ar    1  UNL1        0.1739
     11 N          63.4761   85.1575   10.6142 N.pl3   1  UNL1       -0.2961
     12 H          64.3134   85.6732   10.6607 H       1  UNL1        0.1537
     13 C          62.5520   85.3315    9.4456 C.ar    1  UNL1        0.0780
     14 C          62.9365   84.7945    8.0988 C.ar    1  UNL1        0.0170
     15 C          62.0124   84.9686    6.9302 C.ar    1  UNL1        0.0023
     16 C          60.7036   85.6795    7.1084 C.ar    1  UNL1        0.0138
     17 C          60.3190   86.2165    8.4552 C.ar    1  UNL1        0.0863
     18 CL         59.0103   86.9274    8.6333 Cl      1  UNL1       -0.0799
     19 C          61.2432   86.0425    9.6238 C.ar    1  UNL1        0.1639
     20 F          60.8586   86.5794   10.9705 F       1  UNL1       -0.2020
     21 O          63.4784   85.9355   17.4439 O.3     1  UNL1       -0.4683
     22 C          62.3964   86.7882   18.0372 C.3     1  UNL1        0.2526
     23 O          64.1816   87.8551   15.2483 O.3     1  UNL1       -0.4760
     24 N          64.1697   91.0431   12.0724 N.3     1  UNL1       -0.2648
     25 C          63.3941   89.7759   11.8660 C.3     1  UNL1        0.0762
     26 C          63.3980   88.7133   12.9246 C.3     1  UNL1        0.0609
     27 C          64.1776   88.9178   14.1896 C.3     1  UNL1        0.1688
     28 C          64.9533   90.1850   14.3960 C.3     1  UNL1        0.0609
     29 C          64.9493   91.2476   13.3374 C.3     1  UNL1        0.0762
     30 C          64.1657   92.1058   11.0137 C.3     1  UNL1        0.1584
     31 C          66.5785   95.2407   10.6961 C.3     1  UNL1        0.1107
     32 N          65.3476   94.4182   10.9379 N.am    1  UNL1       -0.3015
     33 C          65.3966   92.9282   10.7719 C.2     1  UNL1        0.2389
     34 O          66.6765   92.2607   10.3642 O.2     1  UNL1       -0.2736
     35 H          64.5075   94.8563   11.2054 H       1  UNL1        0.1495
@<TRIPOS>BOND
     1    31    32    1
     2    32    33   am
     3    33    34    2
     4    33    30    1
     5    30    24    1
     6    24    25    1
     7    25    26    1
     8    26    27    1
     9    27    23    1
    10    23     1    1
    11     1     2   ar
    12     2     3   ar
    13     3     4   ar
    14     4    11    1
    15    11    13    1
    16    13    14   ar
    17    14    15   ar
    18    15    16   ar
    19    16    17   ar
    20    17    18    1
    21    17    19   ar
    22    19    20    1
    23     4     5   ar
    24     5     6   ar
    25     6     7   ar
    26     7     8   ar
    27     8     9   ar
    28     9    10   ar
    29    10    21    1
    30    21    22    1
    31    27    28    1
    32    28    29    1
    33    29    24    1
    34    10     1   ar
    35     8     3   ar
    36    19    13   ar
    37    32    35    1
    38    11    12    1
@<TRIPOS>MOLECULE
*****
 35 38 0 0 0
SMALL
GASTEIGER

@<TRIPOS>ATOM
      1 C          63.6548   90.6501   13.1532 C.ar    1  UNL1        0.1722
      2 C          64.8514   91.3710   12.6069 C.ar    1  UNL1        0.0443
      3 C          65.9224   91.8587   13.5371 C.ar    1  UNL1        0.0526
      4 C          67.1190   92.5796   12.9908 C.ar    1  UNL1        0.1355
      5 N          68.1900   93.0672   13.9209 N.ar    1  UNL1       -0.2089
      6 C          68.0644   92.8340   15.3972 C.ar    1  UNL1        0.2000
      7 N          66.8678   92.1130   15.9435 N.ar    1  UNL1       -0.2238
      8 C          65.7968   91.6254   15.0135 C.ar    1  UNL1        0.0890
      9 C          64.6002   90.9044   15.5597 C.ar    1  UNL1        0.0593
     10 C          63.5292   90.4168   14.6297 C.ar    1  UNL1        0.1739
     11 N          67.2446   92.8129   11.5143 N.pl3   1  UNL1       -0.2961
     12 H          67.5365   92.0815   10.9234 H       1  UNL1        0.1537
     13 C          66.9254   94.1605   10.9381 C.ar    1  UNL1        0.0780
     14 C          66.1720   95.1668   11.7565 C.ar    1  UNL1        0.0170
     15 C          65.8528   96.5144   11.1804 C.ar    1  UNL1        0.0023
     16 C          66.2870   96.8558    9.7858 C.ar    1  UNL1        0.0138
     17 C          67.0404   95.8495    8.9673 C.ar    1  UNL1        0.0863
     18 CL         67.4745   96.1909    7.5727 Cl      1  UNL1       -0.0799
     19 C          67.3596   94.5019    9.5435 C.ar    1  UNL1        0.1639
     20 F          68.1129   93.4956    8.7251 F       1  UNL1       -0.2020
     21 O          62.3327   89.6959   15.1760 O.3     1  UNL1       -0.4683
     22 C          62.4360   88.9443   16.4699 C.3     1  UNL1        0.2526
     23 O          62.5838   90.1624   12.2231 O.3     1  UNL1       -0.4760
     24 N          62.6262   85.9003   10.7802 N.3     1  UNL1       -0.2648
     25 C          63.1469   86.2347   12.1466 C.3     1  UNL1        0.0762
     26 C          63.1328   87.6554   12.6275 C.3     1  UNL1        0.0609
     27 C          62.5979   88.7416   11.7421 C.3     1  UNL1        0.1688
     28 C          62.0772   88.4072   10.3758 C.3     1  UNL1        0.0609
     29 C          62.0914   86.9865    9.8948 C.3     1  UNL1        0.0762
     30 C          62.6403   84.4795   10.2992 C.3     1  UNL1        0.1584
     31 C          63.4411   81.6467   12.9608 C.3     1  UNL1        0.1107
     32 N          62.6978   82.6937   12.1853 N.am    1  UNL1       -0.3015
     33 C          63.3837   83.4325   11.0747 C.2     1  UNL1        0.2389
     34 O          64.8129   83.1244   10.7394 O.2     1  UNL1       -0.2736
     35 H          61.7597   82.8959   12.4054 H       1  UNL1        0.1495
@<TRIPOS>BOND
     1    31    32    1
     2    32    33   am
     3    33    34    2
     4    33    30    1
     5    30    24    1
     6    24    25    1
     7    25    26    1
     8    26    27    1
     9    27    23    1
    10    23     1    1
    11     1     2   ar
    12     2     3   ar
    13     3     4   ar
    14     4    11    1
    15    11    13    1
    16    13    14   ar
    17    14    15   ar
    18    15    16   ar
    19    16    17   ar
    20    17    18    1
    21    17    19   ar
    22    19    20    1
    23     4     5   ar
    24     5     6   ar
    25     6     7   ar
    26     7     8   ar
    27     8     9   ar
    28     9    10   ar
    29    10    21    1
    30    21    22    1
    31    27    28    1
    32    28    29    1
    33    29    24    1
    34    10     1   ar
    35     8     3   ar
    36    19    13   ar
    37    32    35    1
    38    11    12    1
@<TRIPOS>MOLECULE
*****
 35 38 0 0 0
SMALL
GASTEIGER

@<TRIPOS>ATOM
      1 C          64.2304   88.9523   14.1837 C.ar    1  UNL1        0.1722
      2 C          63.3150   88.5077   13.0817 C.ar    1  UNL1        0.0443
      3 C          63.0259   89.4253   11.9308 C.ar    1  UNL1        0.0526
      4 C          62.1105   88.9808   10.8288 C.ar    1  UNL1        0.1355
      5 N          61.8214   89.8982    9.6780 N.ar    1  UNL1       -0.2089
      6 C          62.4477   91.2603    9.6291 C.ar    1  UNL1        0.2000
      7 N          63.3632   91.7049   10.7310 N.ar    1  UNL1       -0.2238
      8 C          63.6523   90.7874   11.8819 C.ar    1  UNL1        0.0890
      9 C          64.5677   91.2320   12.9839 C.ar    1  UNL1        0.0593
     10 C          64.8568   90.3145   14.1348 C.ar    1  UNL1        0.1739
     11 N          61.4842   87.6186   10.8778 N.pl3   1  UNL1       -0.2961
     12 H          60.6508   87.4779   11.3826 H       1  UNL1        0.1537
     13 C          62.1276   86.4709   10.1575 C.ar    1  UNL1        0.0780
     14 C          62.1173   86.4258    8.6582 C.ar    1  UNL1        0.0170
     15 C          62.7607   85.2781    7.9380 C.ar    1  UNL1        0.0023
     16 C          63.4146   84.1756    8.7169 C.ar    1  UNL1        0.0138
     17 C          63.4250   84.2207   10.2163 C.ar    1  UNL1        0.0863
     18 CL         64.0789   83.1182   10.9952 Cl      1  UNL1       -0.0799
     19 C          62.7815   85.3684   10.9366 C.ar    1  UNL1        0.1639
     20 F          62.7919   85.4135   12.4358 F       1  UNL1       -0.2020
     21 O          65.7722   90.7590   15.2368 O.3     1  UNL1       -0.4683
     22 C          66.1152   92.2115   15.3867 C.3     1  UNL1        0.2526
     23 O          64.5195   88.0348   15.3346 O.3     1  UNL1       -0.4760
     24 N          63.8177   83.6097   14.9156 N.3     1  UNL1       -0.2648
     25 C          65.0449   84.2341   14.3206 C.3     1  UNL1        0.0762
     26 C          65.2789   85.7091   14.4602 C.3     1  UNL1        0.0609
     27 C          64.2856   86.5597   15.1949 C.3     1  UNL1        0.1688
     28 C          63.0584   85.9353   15.7900 C.3     1  UNL1        0.0609
     29 C          62.8245   84.4603   15.6504 C.3     1  UNL1        0.0762
     30 C          63.5838   82.1346   14.7760 C.3     1  UNL1        0.1584
     31 C          60.1494   80.2550   14.1265 C.3     1  UNL1        0.1107
     32 N          61.3817   80.7568   14.8192 N.am    1  UNL1       -0.3015
     33 C          62.3516   81.6329   14.0833 C.2     1  UNL1        0.2389
     34 O          62.0893   82.0073   12.6546 O.2     1  UNL1       -0.2736
     35 H          61.5539   80.5110   15.7569 H       1  UNL1        0.1495
@<TRIPOS>BOND
     1    31    32    1
     2    32    33   am
     3    33    34    2
     4    33    30    1
     5    30    24    1
     6    24    25    1
     7    25    26    1
     8    26    27    1
     9    27    23    1
    10    23     1    1
    11     1     2   ar
    12     2     3   ar
    13     3     4   ar
    14     4    11    1
    15    11    13    1
    16    13    14   ar
    17    14    15   ar
    18    15    16   ar
    19    16    17   ar
    20    17    18    1
    21    17    19   ar
    22    19    20    1
    23     4     5   ar
    24     5     6   ar
    25     6     7   ar
    26     7     8   ar
    27     8     9   ar
    28     9    10   ar
    29    10    21    1
    30    21    22    1
    31    27    28    1
    32    28    29    1
    33    29    24    1
    34    10     1   ar
    35     8     3   ar
    36    19    13   ar
    37    32    35    1
    38    11    12    1
