@<TRIPOS>MOLECULE
*****
 29 32 0 0 0
SMALL
GASTEIGER

@<TRIPOS>ATOM
      1 C          60.0662   91.8047    4.0930 C.ar    1  UNL1        0.0534
      2 C          59.4201   92.7745    3.1486 C.ar    1  UNL1        0.0058
      3 C          60.2439   93.4637    2.1015 C.ar    1  UNL1        0.0149
      4 C          61.7138   93.1832    1.9988 C.ar    1  UNL1        0.0516
      5 C          62.3600   92.2133    2.9433 C.ar    1  UNL1        0.0149
      6 C          61.5362   91.5241    3.9903 C.ar    1  UNL1        0.0058
      7 N          62.5376   93.8724    0.9518 N.am    1  UNL1       -0.2681
      8 C          62.3885   93.4907   -0.4911 C.2     1  UNL1        0.3082
      9 O          61.4157   92.4198   -0.8870 O.2     1  UNL1       -0.2522
     10 N          63.2123   94.1800   -1.5382 N.am    1  UNL1       -0.2558
     11 C          63.1725   93.9066   -3.0125 C.3     1  UNL1        0.1217
     12 C          64.1561   94.8213   -3.6803 C.ar    1  UNL1       -0.0046
     13 C          64.5456   94.9988   -5.1179 C.ar    1  UNL1       -0.0029
     14 C          65.5829   96.0151   -5.4938 C.ar    1  UNL1       -0.0003
     15 C          66.2306   96.8537   -4.4322 C.ar    1  UNL1       -0.0003
     16 C          65.8411   96.6762   -2.9946 C.ar    1  UNL1       -0.0029
     17 C          64.8038   95.6600   -2.6187 C.ar    1  UNL1       -0.0046
     18 C          64.2205   95.2636   -1.2948 C.3     1  UNL1        0.1217
     19 H          63.1761   94.5753    1.2116 H       1  UNL1        0.1564
     20 O          57.8039   91.4944    5.3321 O.2     1  UNL1       -0.2701
     21 C          59.2425   91.1154    5.1400 C.2     1  UNL1        0.2458
     22 N          59.8573   90.0473    5.9951 N.am    1  UNL1       -0.3008
     23 H          60.8015   89.7986    5.8690 H       1  UNL1        0.1497
     24 C          59.0335   89.3580    7.0421 C.3     1  UNL1        0.0922
     25 C          59.6768   88.3771    7.9770 C.3     1  UNL1        0.0517
     26 C          59.6560   86.8836    7.8389 C.3     1  UNL1        0.0363
     27 C          60.4202   86.3009    8.9906 C.3     1  UNL1        0.1423
     28 O          60.9133   87.4344    9.8405 O.3     1  UNL1       -0.3537
     29 C          60.4538   88.7175    9.2140 C.3     1  UNL1        0.1439
@<TRIPOS>BOND
     1    20    21    2
     2    21    22   am
     3    22    24    1
     4    25    24    1
     5    25    26    1
     6    26    27    1
     7    27    28    1
     8    28    29    1
     9    21     1    1
    10     1     2   ar
    11     2     3   ar
    12     3     4   ar
    13     4     7    1
    14     7     8   am
    15     8     9    2
    16     8    10   am
    17    10    11    1
    18    11    12    1
    19    12    13   ar
    20    13    14   ar
    21    14    15   ar
    22    15    16   ar
    23    16    17   ar
    24    17    18    1
    25     4     5   ar
    26     5     6   ar
    27    29    25    1
    28     6     1   ar
    29    18    10    1
    30    17    12   ar
    31    22    23    1
    32     7    19    1
@<TRIPOS>MOLECULE
*****
 29 32 0 0 0
SMALL
GASTEIGER

@<TRIPOS>ATOM
      1 C          59.3705   89.6394    6.8529 C.ar    1  UNL1        0.0534
      2 C          60.2086   90.1550    7.9850 C.ar    1  UNL1        0.0058
      3 C          60.7034   89.2123    9.0417 C.ar    1  UNL1        0.0149
      4 C          60.3600   87.7541    8.9664 C.ar    1  UNL1        0.0516
      5 C          59.5219   87.2385    7.8342 C.ar    1  UNL1        0.0149
      6 C          59.0271   88.1811    6.7775 C.ar    1  UNL1        0.0058
      7 N          60.8548   86.8115   10.0231 N.am    1  UNL1       -0.2681
      8 C          61.9152   85.8036    9.6921 C.2     1  UNL1        0.3082
      9 O          62.4809   85.7383    8.3044 O.2     1  UNL1       -0.2522
     10 N          62.4100   84.8610   10.7488 N.am    1  UNL1       -0.2558
     11 C          63.4603   83.8056   10.5672 C.3     1  UNL1        0.1217
     12 C          63.6408   83.1006   11.8789 C.ar    1  UNL1       -0.0046
     13 C          64.5387   81.9745   12.2978 C.ar    1  UNL1       -0.0029
     14 C          64.4977   81.4680   13.7091 C.ar    1  UNL1       -0.0003
     15 C          63.5589   82.0876   14.7014 C.ar    1  UNL1       -0.0003
     16 C          62.6610   83.2137   14.2824 C.ar    1  UNL1       -0.0029
     17 C          62.7020   83.7202   12.8711 C.ar    1  UNL1       -0.0046
     18 C          61.9413   84.8082   12.1728 C.3     1  UNL1        0.1217
     19 H          60.4835   86.8544   10.9339 H       1  UNL1        0.1564
     20 O          57.4135   90.6388    5.4669 O.2     1  UNL1       -0.2701
     21 C          58.8757   90.5820    5.7962 C.2     1  UNL1        0.2458
     22 N          59.8433   91.4679    5.0688 N.am    1  UNL1       -0.3008
     23 H          60.8031   91.4306    5.2849 H       1  UNL1        0.1497
     24 C          59.3486   92.4105    4.0121 C.3     1  UNL1        0.0922
     25 C          60.2348   92.7758    2.8584 C.3     1  UNL1        0.0517
     26 C          61.6945   92.4544    2.7315 C.3     1  UNL1        0.0363
     27 C          62.1788   93.0066    1.4237 C.3     1  UNL1        0.1423
     28 O          61.0184   93.6694    0.7423 O.3     1  UNL1       -0.3537
     29 C          59.8170   93.5267    1.6289 C.3     1  UNL1        0.1439
@<TRIPOS>BOND
     1    20    21    2
     2    21    22   am
     3    22    24    1
     4    25    24    1
     5    25    26    1
     6    26    27    1
     7    27    28    1
     8    28    29    1
     9    21     1    1
    10     1     2   ar
    11     2     3   ar
    12     3     4   ar
    13     4     7    1
    14     7     8   am
    15     8     9    2
    16     8    10   am
    17    10    11    1
    18    11    12    1
    19    12    13   ar
    20    13    14   ar
    21    14    15   ar
    22    15    16   ar
    23    16    17   ar
    24    17    18    1
    25     4     5   ar
    26     5     6   ar
    27    29    25    1
    28     6     1   ar
    29    18    10    1
    30    17    12   ar
    31    22    23    1
    32     7    19    1
@<TRIPOS>MOLECULE
*****
 29 32 0 0 0
SMALL
GASTEIGER

@<TRIPOS>ATOM
      1 C          60.1690   91.2278    4.6549 C.ar    1  UNL1        0.0534
      2 C          61.5446   90.7646    4.2769 C.ar    1  UNL1        0.0058
      3 C          62.3328   91.5176    3.2465 C.ar    1  UNL1        0.0149
      4 C          61.7454   92.7338    2.5941 C.ar    1  UNL1        0.0516
      5 C          60.3696   93.1970    2.9721 C.ar    1  UNL1        0.0149
      6 C          59.5814   92.4440    4.0025 C.ar    1  UNL1        0.0058
      7 N          62.5336   93.4867    1.5637 N.am    1  UNL1       -0.2681
      8 C          62.2701   93.2598    0.1046 C.2     1  UNL1        0.3082
      9 O          61.2185   92.2799   -0.3241 O.2     1  UNL1       -0.2522
     10 N          63.0583   94.0128   -0.9258 N.am    1  UNL1       -0.2558
     11 C          62.9074   93.8917   -2.4133 C.3     1  UNL1        0.1217
     12 C          63.8917   94.8232   -3.0565 C.ar    1  UNL1       -0.0046
     13 C          64.1946   95.1269   -4.4938 C.ar    1  UNL1       -0.0029
     14 C          65.2568   96.1274   -4.8411 C.ar    1  UNL1       -0.0003
     15 C          66.0161   96.8241   -3.7512 C.ar    1  UNL1       -0.0003
     16 C          65.7131   96.5204   -2.3139 C.ar    1  UNL1       -0.0029
     17 C          64.6509   95.5200   -1.9665 C.ar    1  UNL1       -0.0046
     18 C          64.1359   95.0191   -0.6497 C.3     1  UNL1        0.1217
     19 H          63.2238   94.1299    1.8451 H       1  UNL1        0.1564
     20 O          57.8847   90.4198    5.5925 O.2     1  UNL1       -0.2701
     21 C          59.3808   90.4748    5.6853 C.2     1  UNL1        0.2458
     22 N          60.0887   89.7768    6.8086 N.am    1  UNL1       -0.3008
     23 H          61.0707   89.8129    6.8695 H       1  UNL1        0.1497
     24 C          59.3005   89.0238    7.8390 C.3     1  UNL1        0.0922
     25 C          59.9420   88.6362    9.1383 C.3     1  UNL1        0.0517
     26 C          60.1089   87.2386    9.6569 C.3     1  UNL1        0.0363
     27 C          60.7993   87.3168   10.9863 C.3     1  UNL1        0.1423
     28 O          61.0592   88.7628   11.2893 O.3     1  UNL1       -0.3537
     29 C          60.5293   89.5782   10.1472 C.3     1  UNL1        0.1439
@<TRIPOS>BOND
     1    20    21    2
     2    21    22   am
     3    22    24    1
     4    25    24    1
     5    25    26    1
     6    26    27    1
     7    27    28    1
     8    28    29    1
     9    21     1    1
    10     1     2   ar
    11     2     3   ar
    12     3     4   ar
    13     4     7    1
    14     7     8   am
    15     8     9    2
    16     8    10   am
    17    10    11    1
    18    11    12    1
    19    12    13   ar
    20    13    14   ar
    21    14    15   ar
    22    15    16   ar
    23    16    17   ar
    24    17    18    1
    25     4     5   ar
    26     5     6   ar
    27    29    25    1
    28     6     1   ar
    29    18    10    1
    30    17    12   ar
    31    22    23    1
    32     7    19    1
@<TRIPOS>MOLECULE
*****
 29 32 0 0 0
SMALL
GASTEIGER

@<TRIPOS>ATOM
      1 C          64.8605   91.1272   13.5217 C.ar    1  UNL1        0.0534
      2 C          65.1857   90.2161   14.6680 C.ar    1  UNL1        0.0058
      3 C          64.6449   88.8172   14.6909 C.ar    1  UNL1        0.0149
      4 C          63.7790   88.3293   13.5675 C.ar    1  UNL1        0.0516
      5 C          63.4538   89.2404   12.4211 C.ar    1  UNL1        0.0149
      6 C          63.9945   90.6393   12.3982 C.ar    1  UNL1        0.0058
      7 N          63.2383   86.9303   13.5905 N.am    1  UNL1       -0.2681
      8 C          64.1441   85.7815   13.9215 C.2     1  UNL1        0.3082
      9 O          65.5906   86.0316   14.2297 O.2     1  UNL1       -0.2522
     10 N          63.6033   84.3825   13.9445 N.am    1  UNL1       -0.2558
     11 C          64.3842   83.1404   14.2565 C.3     1  UNL1        0.1217
     12 C          63.4503   81.9703   14.1643 C.ar    1  UNL1       -0.0046
     13 C          63.6611   80.4993   14.3687 C.ar    1  UNL1       -0.0029
     14 C          62.5138   79.5473   14.2040 C.ar    1  UNL1       -0.0003
     15 C          61.1556   80.0662   13.8349 C.ar    1  UNL1       -0.0003
     16 C          60.9448   81.5371   13.6305 C.ar    1  UNL1       -0.0029
     17 C          62.0922   82.4892   13.7952 C.ar    1  UNL1       -0.0046
     18 C          62.1868   83.9800   13.6594 C.3     1  UNL1        0.1217
     19 H          62.2889   86.7662   13.3882 H       1  UNL1        0.1564
     20 O          65.7649   93.2108   14.7828 O.2     1  UNL1       -0.2701
     21 C          65.4012   92.5262   13.4987 C.2     1  UNL1        0.2458
     22 N          65.5782   93.2405   12.1916 N.am    1  UNL1       -0.3008
     23 H          65.3395   92.7911   11.3488 H       1  UNL1        0.1497
     24 C          66.1190   94.6395   12.1687 C.3     1  UNL1        0.0922
     25 C          66.6232   95.2277   10.8843 C.3     1  UNL1        0.0517
     26 C          67.1895   94.4612    9.7259 C.3     1  UNL1        0.0363
     27 C          67.5660   95.4454    8.6584 C.3     1  UNL1        0.1423
     28 O          67.2324   96.8203    9.1572 O.3     1  UNL1       -0.3537
     29 C          66.6497   96.6856   10.5328 C.3     1  UNL1        0.1439
@<TRIPOS>BOND
     1    20    21    2
     2    21    22   am
     3    22    24    1
     4    25    24    1
     5    25    26    1
     6    26    27    1
     7    27    28    1
     8    28    29    1
     9    21     1    1
    10     1     2   ar
    11     2     3   ar
    12     3     4   ar
    13     4     7    1
    14     7     8   am
    15     8     9    2
    16     8    10   am
    17    10    11    1
    18    11    12    1
    19    12    13   ar
    20    13    14   ar
    21    14    15   ar
    22    15    16   ar
    23    16    17   ar
    24    17    18    1
    25     4     5   ar
    26     5     6   ar
    27    29    25    1
    28     6     1   ar
    29    18    10    1
    30    17    12   ar
    31    22    23    1
    32     7    19    1
@<TRIPOS>MOLECULE
*****
 29 32 0 0 0
SMALL
GASTEIGER

@<TRIPOS>ATOM
      1 C          58.5077   95.0104   -0.4128 C.ar    1  UNL1        0.0534
      2 C          58.1634   96.4052   -0.8440 C.ar    1  UNL1        0.0058
      3 C          57.0318   96.6365   -1.8011 C.ar    1  UNL1        0.0149
      4 C          56.2445   95.4731   -2.3269 C.ar    1  UNL1        0.0516
      5 C          56.5887   94.0782   -1.8956 C.ar    1  UNL1        0.0149
      6 C          57.7204   93.8469   -0.9385 C.ar    1  UNL1        0.0058
      7 N          55.1128   95.7044   -3.2839 N.am    1  UNL1       -0.2681
      8 C          53.7103   95.8371   -2.7690 C.2     1  UNL1        0.3082
      9 O          53.4394   95.7385   -1.2970 O.2     1  UNL1       -0.2522
     10 N          52.5787   96.0684   -3.7260 N.am    1  UNL1       -0.2558
     11 C          51.1319   96.2204   -3.3605 C.3     1  UNL1        0.1217
     12 C          50.3542   96.4343   -4.6252 C.ar    1  UNL1       -0.0046
     13 C          48.8911   96.6444   -4.8804 C.ar    1  UNL1       -0.0029
     14 C          48.3943   96.8349   -6.2828 C.ar    1  UNL1       -0.0003
     15 C          49.3605   96.8152   -7.4300 C.ar    1  UNL1       -0.0003
     16 C          50.8235   96.6050   -7.1748 C.ar    1  UNL1       -0.0029
     17 C          51.3204   96.4145   -5.7724 C.ar    1  UNL1       -0.0046
     18 C          52.6952   96.1884   -5.2167 C.3     1  UNL1        0.1217
     19 H          55.2907   95.7691   -4.2501 H       1  UNL1        0.1564
     20 O          60.0792   95.8783    1.4653 O.2     1  UNL1       -0.2701
     21 C          59.6393   94.7791    0.5443 C.2     1  UNL1        0.2458
     22 N          60.3310   93.4486    0.5803 N.am    1  UNL1       -0.3008
     23 H          60.0423   92.7272   -0.0242 H       1  UNL1        0.1497
     24 C          61.4626   93.2173    1.5373 C.3     1  UNL1        0.0922
     25 C          62.8736   93.4975    1.1123 C.3     1  UNL1        0.0517
     26 C          64.1142   92.9778    1.7762 C.3     1  UNL1        0.0363
     27 C          65.2990   93.5058    1.0230 C.3     1  UNL1        0.1423
     28 O          64.7906   94.3519   -0.1065 O.3     1  UNL1       -0.3537
     29 C          63.2916   94.3468   -0.0513 C.3     1  UNL1        0.1439
@<TRIPOS>BOND
     1    20    21    2
     2    21    22   am
     3    22    24    1
     4    25    24    1
     5    25    26    1
     6    26    27    1
     7    27    28    1
     8    28    29    1
     9    21     1    1
    10     1     2   ar
    11     2     3   ar
    12     3     4   ar
    13     4     7    1
    14     7     8   am
    15     8     9    2
    16     8    10   am
    17    10    11    1
    18    11    12    1
    19    12    13   ar
    20    13    14   ar
    21    14    15   ar
    22    15    16   ar
    23    16    17   ar
    24    17    18    1
    25     4     5   ar
    26     5     6   ar
    27    29    25    1
    28     6     1   ar
    29    18    10    1
    30    17    12   ar
    31    22    23    1
    32     7    19    1
@<TRIPOS>MOLECULE
*****
 29 32 0 0 0
SMALL
GASTEIGER

@<TRIPOS>ATOM
      1 C          72.4537   75.0340   14.8712 C.ar    1  UNL1        0.0534
      2 C          71.3114   75.9915   14.7030 C.ar    1  UNL1        0.0058
      3 C          71.2273   76.8508   13.4763 C.ar    1  UNL1        0.0149
      4 C          72.2856   76.7525   12.4179 C.ar    1  UNL1        0.0516
      5 C          73.4280   75.7950   12.5861 C.ar    1  UNL1        0.0149
      6 C          73.5120   74.9358   13.8127 C.ar    1  UNL1        0.0058
      7 N          72.2016   77.6118   11.1913 N.am    1  UNL1       -0.2681
      8 C          72.1823   79.1059   11.3221 C.2     1  UNL1        0.3082
      9 O          72.2470   79.7408   12.6795 O.2     1  UNL1       -0.2522
     10 N          72.0983   79.9652   10.0955 N.am    1  UNL1       -0.2558
     11 C          72.0701   81.4647   10.0696 C.3     1  UNL1        0.1217
     12 C          71.9821   81.9021    8.6375 C.ar    1  UNL1       -0.0046
     13 C          71.9225   83.2608    8.0049 C.ar    1  UNL1       -0.0029
     14 C          71.8366   83.3903    6.5130 C.ar    1  UNL1       -0.0003
     15 C          71.8104   82.1611    5.6537 C.ar    1  UNL1       -0.0003
     16 C          71.8700   80.8024    6.2863 C.ar    1  UNL1       -0.0029
     17 C          71.9559   80.6729    7.7782 C.ar    1  UNL1       -0.0046
     18 C          72.0277   79.4758    8.6793 C.3     1  UNL1        0.1217
     19 H          72.1591   77.1951   10.3003 H       1  UNL1        0.1564
     20 O          73.3185   74.6434   17.2897 O.2     1  UNL1       -0.2701
     21 C          72.5377   74.1748   16.0978 C.2     1  UNL1        0.2458
     22 N          71.8408   72.8468   16.1324 N.am    1  UNL1       -0.3008
     23 H          71.3284   72.5393   15.3501 H       1  UNL1        0.1497
     24 C          71.9249   71.9876   17.3591 C.3     1  UNL1        0.0922
     25 C          72.1555   70.5114   17.2264 C.3     1  UNL1        0.0517
     26 C          73.4249   69.8548   16.7709 C.3     1  UNL1        0.0363
     27 C          73.2112   68.3702   16.7888 C.3     1  UNL1        0.1423
     28 O          71.8097   68.1093   17.2554 O.3     1  UNL1       -0.3537
     29 C          71.1573   69.4326   17.5258 C.3     1  UNL1        0.1439
@<TRIPOS>BOND
     1    20    21    2
     2    21    22   am
     3    22    24    1
     4    25    24    1
     5    25    26    1
     6    26    27    1
     7    27    28    1
     8    28    29    1
     9    21     1    1
    10     1     2   ar
    11     2     3   ar
    12     3     4   ar
    13     4     7    1
    14     7     8   am
    15     8     9    2
    16     8    10   am
    17    10    11    1
    18    11    12    1
    19    12    13   ar
    20    13    14   ar
    21    14    15   ar
    22    15    16   ar
    23    16    17   ar
    24    17    18    1
    25     4     5   ar
    26     5     6   ar
    27    29    25    1
    28     6     1   ar
    29    18    10    1
    30    17    12   ar
    31    22    23    1
    32     7    19    1
@<TRIPOS>MOLECULE
*****
 29 32 0 0 0
SMALL
GASTEIGER

@<TRIPOS>ATOM
      1 C          64.0486   89.3503   13.5755 C.ar    1  UNL1        0.0534
      2 C          64.5829   88.3990   14.6048 C.ar    1  UNL1        0.0058
      3 C          64.3580   86.9239   14.4513 C.ar    1  UNL1        0.0149
      4 C          63.5987   86.4002   13.2685 C.ar    1  UNL1        0.0516
      5 C          63.0644   87.3515   12.2391 C.ar    1  UNL1        0.0149
      6 C          63.2893   88.8265   12.3926 C.ar    1  UNL1        0.0058
      7 N          63.3738   84.9251   13.1150 N.am    1  UNL1       -0.2681
      8 C          63.4453   84.2929   11.7566 C.2     1  UNL1        0.3082
      9 O          63.7418   85.1357   10.5518 O.2     1  UNL1       -0.2522
     10 N          63.2204   82.8178   11.6031 N.am    1  UNL1       -0.2558
     11 C          63.2600   82.0492   10.3156 C.3     1  UNL1        0.1217
     12 C          62.9804   80.6087   10.6269 C.ar    1  UNL1       -0.0046
     13 C          62.8919   79.3921    9.7540 C.ar    1  UNL1       -0.0029
     14 C          62.5908   78.0539   10.3610 C.ar    1  UNL1       -0.0003
     15 C          62.3783   77.9323   11.8409 C.ar    1  UNL1       -0.0003
     16 C          62.4669   79.1489   12.7138 C.ar    1  UNL1       -0.0029
     17 C          62.7679   80.4871   12.1068 C.ar    1  UNL1       -0.0046
     18 C          62.9162   81.8524   12.7101 C.3     1  UNL1        0.1217
     19 H          63.1792   84.3719   13.9057 H       1  UNL1        0.1564
     20 O          63.5724   91.5816   14.8183 O.2     1  UNL1       -0.2701
     21 C          64.2736   90.8254   13.7291 C.2     1  UNL1        0.2458
     22 N          65.1998   91.5442   12.7933 N.am    1  UNL1       -0.3008
     23 H          65.6600   91.0478   12.0784 H       1  UNL1        0.1497
     24 C          65.4247   93.0193   12.9468 C.3     1  UNL1        0.0922
     25 C          66.0716   93.7984   11.8404 C.3     1  UNL1        0.0517
     26 C          66.7172   93.2208   10.6157 C.3     1  UNL1        0.0363
     27 C          67.2311   94.3574    9.7827 C.3     1  UNL1        0.1423
     28 O          66.9032   95.6376   10.4926 O.3     1  UNL1       -0.3537
     29 C          66.1866   95.2921   11.7642 C.3     1  UNL1        0.1439
@<TRIPOS>BOND
     1    20    21    2
     2    21    22   am
     3    22    24    1
     4    25    24    1
     5    25    26    1
     6    26    27    1
     7    27    28    1
     8    28    29    1
     9    21     1    1
    10     1     2   ar
    11     2     3   ar
    12     3     4   ar
    13     4     7    1
    14     7     8   am
    15     8     9    2
    16     8    10   am
    17    10    11    1
    18    11    12    1
    19    12    13   ar
    20    13    14   ar
    21    14    15   ar
    22    15    16   ar
    23    16    17   ar
    24    17    18    1
    25     4     5   ar
    26     5     6   ar
    27    29    25    1
    28     6     1   ar
    29    18    10    1
    30    17    12   ar
    31    22    23    1
    32     7    19    1
@<TRIPOS>MOLECULE
*****
 29 32 0 0 0
SMALL
GASTEIGER

@<TRIPOS>ATOM
      1 C          64.1051   88.9268   14.3107 C.ar    1  UNL1        0.0534
      2 C          64.5553   87.6854   15.0220 C.ar    1  UNL1        0.0058
      3 C          64.3676   86.3430   14.3796 C.ar    1  UNL1        0.0149
      4 C          63.7296   86.2420   13.0258 C.ar    1  UNL1        0.0516
      5 C          63.2793   87.4835   12.3144 C.ar    1  UNL1        0.0149
      6 C          63.4670   88.8259   12.9568 C.ar    1  UNL1        0.0058
      7 N          63.5419   84.8996   12.3834 N.am    1  UNL1       -0.2681
      8 C          63.3092   83.6867   13.2346 C.2     1  UNL1        0.3082
      9 O          63.2642   83.8162   14.7283 O.2     1  UNL1       -0.2522
     10 N          63.1215   82.3443   12.5922 N.am    1  UNL1       -0.2558
     11 C          62.8814   81.0492   13.3098 C.3     1  UNL1        0.1217
     12 C          62.7524   79.9658   12.2805 C.ar    1  UNL1       -0.0046
     13 C          62.5097   78.4905   12.4011 C.ar    1  UNL1       -0.0029
     14 C          62.4273   77.6407   11.1678 C.ar    1  UNL1       -0.0003
     15 C          62.5877   78.2662    9.8139 C.ar    1  UNL1       -0.0003
     16 C          62.8304   79.7415    9.6933 C.ar    1  UNL1       -0.0029
     17 C          62.9128   80.5913   10.9266 C.ar    1  UNL1       -0.0046
     18 C          63.1409   82.0613   11.1192 C.3     1  UNL1        0.1217
     19 H          63.5715   84.8146   11.4030 H       1  UNL1        0.1564
     20 O          63.2346   90.8201   15.8623 O.2     1  UNL1       -0.2701
     21 C          64.2928   90.2692   14.9531 C.2     1  UNL1        0.2458
     22 N          65.5388   91.0607   14.6863 N.am    1  UNL1       -0.3008
     23 H          66.2333   90.6991   14.0896 H       1  UNL1        0.1497
     24 C          65.7265   92.4031   15.3288 C.3     1  UNL1        0.0922
     25 C          67.1067   92.8938   15.6513 C.3     1  UNL1        0.0517
     26 C          67.6901   94.2148   15.2455 C.3     1  UNL1        0.0363
     27 C          69.0899   94.2871   15.7797 C.3     1  UNL1        0.1423
     28 O          69.3717   93.0107   16.5156 O.3     1  UNL1       -0.3537
     29 C          68.1460   92.1496   16.4362 C.3     1  UNL1        0.1439
@<TRIPOS>BOND
     1    20    21    2
     2    21    22   am
     3    22    24    1
     4    25    24    1
     5    25    26    1
     6    26    27    1
     7    27    28    1
     8    28    29    1
     9    21     1    1
    10     1     2   ar
    11     2     3   ar
    12     3     4   ar
    13     4     7    1
    14     7     8   am
    15     8     9    2
    16     8    10   am
    17    10    11    1
    18    11    12    1
    19    12    13   ar
    20    13    14   ar
    21    14    15   ar
    22    15    16   ar
    23    16    17   ar
    24    17    18    1
    25     4     5   ar
    26     5     6   ar
    27    29    25    1
    28     6     1   ar
    29    18    10    1
    30    17    12   ar
    31    22    23    1
    32     7    19    1
