@<TRIPOS>MOLECULE
*****
 21 25 0 0 0
SMALL
GASTEIGER

@<TRIPOS>ATOM
      1 C          59.1124   89.3639    6.7476 C.3     1  UNL1        0.0307
      2 C          59.7624   88.4344    7.7291 C.ar    1  UNL1       -0.0258
      3 C          59.5871   86.9515    7.5870 C.ar    1  UNL1       -0.0046
      4 C          60.2371   86.0219    8.5685 C.ar    1  UNL1       -0.0004
      5 C          61.0624   86.5753    9.6922 C.ar    1  UNL1       -0.0006
      6 C          61.7124   85.6457   10.6737 C.ar    1  UNL1       -0.0000
      7 C          62.5378   86.1991   11.7974 C.ar    1  UNL1       -0.0003
      8 C          62.7131   87.6820   11.9395 C.ar    1  UNL1       -0.0040
      9 C          63.5384   88.2353   13.0632 C.ar    1  UNL1       -0.0003
     10 C          64.1884   87.3058   14.0447 C.ar    1  UNL1       -0.0000
     11 C          64.0131   85.8228   13.9026 C.ar    1  UNL1       -0.0000
     12 C          64.6631   84.8933   14.8841 C.ar    1  UNL1       -0.0000
     13 C          64.4878   83.4104   14.7420 C.ar    1  UNL1        0.0000
     14 C          63.6625   82.8571   13.6183 C.ar    1  UNL1       -0.0000
     15 C          63.0125   83.7866   12.6368 C.ar    1  UNL1       -0.0000
     16 C          63.1878   85.2695   12.7789 C.ar    1  UNL1       -0.0000
     17 C          62.0631   88.6116   10.9580 C.ar    1  UNL1       -0.0221
     18 C          61.2378   88.0582    9.8343 C.ar    1  UNL1       -0.0082
     19 C          60.5878   88.9878    8.8528 C.ar    1  UNL1       -0.0261
     20 C          61.0177   90.3310    9.3635 C.3     1  UNL1        0.0307
     21 C          61.8695   90.1138   10.5790 C.3     1  UNL1        0.0310
@<TRIPOS>BOND
     1     1     2    1
     2     2     3   ar
     3     3     4   ar
     4     4     5   ar
     5     5     6   ar
     6     6     7   ar
     7     7     8   ar
     8     8     9   ar
     9     9    10   ar
    10    10    11   ar
    11    11    12   ar
    12    12    13   ar
    13    13    14   ar
    14    14    15   ar
    15    15    16   ar
    16     8    17   ar
    17    17    18   ar
    18    18    19   ar
    19    19    20    1
    20    20    21    1
    21    19     2   ar
    22    18     5   ar
    23    16     7   ar
    24    21    17    1
    25    16    11   ar
@<TRIPOS>MOLECULE
*****
 21 25 0 0 0
SMALL
GASTEIGER

@<TRIPOS>ATOM
      1 C          62.5565   91.2349   10.4660 C.3     1  UNL1        0.0307
      2 C          62.5430   89.7534   10.7001 C.ar    1  UNL1       -0.0258
      3 C          61.9433   88.8375    9.6748 C.ar    1  UNL1       -0.0046
      4 C          61.9298   87.3559    9.9089 C.ar    1  UNL1       -0.0004
      5 C          62.5161   86.7903   11.1684 C.ar    1  UNL1       -0.0006
      6 C          62.5027   85.3087   11.4025 C.ar    1  UNL1       -0.0000
      7 C          63.0890   84.7431   12.6620 C.ar    1  UNL1       -0.0003
      8 C          63.6888   85.6590   13.6873 C.ar    1  UNL1       -0.0040
      9 C          64.2751   85.0934   14.9468 C.ar    1  UNL1       -0.0003
     10 C          64.2616   83.6119   15.1810 C.ar    1  UNL1       -0.0000
     11 C          63.6618   82.6959   14.1556 C.ar    1  UNL1       -0.0000
     12 C          63.6484   81.2144   14.3897 C.ar    1  UNL1       -0.0000
     13 C          63.0486   80.2985   13.3644 C.ar    1  UNL1        0.0000
     14 C          62.4623   80.8641   12.1049 C.ar    1  UNL1       -0.0000
     15 C          62.4758   82.3456   11.8708 C.ar    1  UNL1       -0.0000
     16 C          63.0755   83.2615   12.8961 C.ar    1  UNL1       -0.0000
     17 C          63.7022   87.1406   13.4532 C.ar    1  UNL1       -0.0221
     18 C          63.1159   87.7062   12.1937 C.ar    1  UNL1       -0.0082
     19 C          63.1294   89.1878   11.9596 C.ar    1  UNL1       -0.0261
     20 C          63.8020   89.6936   13.2012 C.3     1  UNL1        0.0307
     21 C          64.1327   88.5117   14.0636 C.3     1  UNL1        0.0310
@<TRIPOS>BOND
     1     1     2    1
     2     2     3   ar
     3     3     4   ar
     4     4     5   ar
     5     5     6   ar
     6     6     7   ar
     7     7     8   ar
     8     8     9   ar
     9     9    10   ar
    10    10    11   ar
    11    11    12   ar
    12    12    13   ar
    13    13    14   ar
    14    14    15   ar
    15    15    16   ar
    16     8    17   ar
    17    17    18   ar
    18    18    19   ar
    19    19    20    1
    20    20    21    1
    21    19     2   ar
    22    18     5   ar
    23    16     7   ar
    24    21    17    1
    25    16    11   ar
@<TRIPOS>MOLECULE
*****
 21 25 0 0 0
SMALL
GASTEIGER

@<TRIPOS>ATOM
      1 C          63.1528   80.3534   13.8046 C.3     1  UNL1        0.0307
      2 C          63.0401   81.7461   13.2591 C.ar    1  UNL1       -0.0258
      3 C          62.4431   81.9740   11.9021 C.ar    1  UNL1       -0.0046
      4 C          62.3304   83.3668   11.3565 C.ar    1  UNL1       -0.0004
      5 C          62.8149   84.5316   12.1680 C.ar    1  UNL1       -0.0006
      6 C          62.7022   85.9243   11.6225 C.ar    1  UNL1       -0.0000
      7 C          63.1867   87.0891   12.4340 C.ar    1  UNL1       -0.0003
      8 C          63.7838   86.8612   13.7910 C.ar    1  UNL1       -0.0040
      9 C          64.2682   88.0261   14.6025 C.ar    1  UNL1       -0.0003
     10 C          64.1556   89.4188   14.0569 C.ar    1  UNL1       -0.0000
     11 C          63.5585   89.6467   12.6999 C.ar    1  UNL1       -0.0000
     12 C          63.4458   91.0394   12.1543 C.ar    1  UNL1       -0.0000
     13 C          62.8488   91.2673   10.7973 C.ar    1  UNL1        0.0000
     14 C          62.3643   90.1025    9.9858 C.ar    1  UNL1       -0.0000
     15 C          62.4769   88.7098   10.5314 C.ar    1  UNL1       -0.0000
     16 C          63.0740   88.4819   11.8884 C.ar    1  UNL1       -0.0000
     17 C          63.8964   85.4685   14.3366 C.ar    1  UNL1       -0.0221
     18 C          63.4120   84.3037   13.5251 C.ar    1  UNL1       -0.0082
     19 C          63.5246   82.9109   14.0706 C.ar    1  UNL1       -0.0261
     20 C          64.1588   83.1505   15.4086 C.3     1  UNL1        0.0307
     21 C          64.3735   84.6271   15.5622 C.3     1  UNL1        0.0310
@<TRIPOS>BOND
     1     1     2    1
     2     2     3   ar
     3     3     4   ar
     4     4     5   ar
     5     5     6   ar
     6     6     7   ar
     7     7     8   ar
     8     8     9   ar
     9     9    10   ar
    10    10    11   ar
    11    11    12   ar
    12    12    13   ar
    13    13    14   ar
    14    14    15   ar
    15    15    16   ar
    16     8    17   ar
    17    17    18   ar
    18    18    19   ar
    19    19    20    1
    20    20    21    1
    21    19     2   ar
    22    18     5   ar
    23    16     7   ar
    24    21    17    1
    25    16    11   ar
@<TRIPOS>MOLECULE
*****
 21 25 0 0 0
SMALL
GASTEIGER

@<TRIPOS>ATOM
      1 C          64.8867   83.0841   15.2689 C.3     1  UNL1        0.0307
      2 C          64.0912   83.6618   14.1361 C.ar    1  UNL1       -0.0258
      3 C          63.3636   82.7528   13.1905 C.ar    1  UNL1       -0.0046
      4 C          62.5680   83.3304   12.0576 C.ar    1  UNL1       -0.0004
      5 C          62.5002   84.8172   11.8703 C.ar    1  UNL1       -0.0006
      6 C          61.7047   85.3949   10.7375 C.ar    1  UNL1       -0.0000
      7 C          61.6368   86.8816   10.5502 C.ar    1  UNL1       -0.0003
      8 C          62.3644   87.7906   11.4958 C.ar    1  UNL1       -0.0040
      9 C          62.2965   89.2773   11.3085 C.ar    1  UNL1       -0.0003
     10 C          61.5010   89.8550   10.1757 C.ar    1  UNL1       -0.0000
     11 C          60.7734   88.9460    9.2300 C.ar    1  UNL1       -0.0000
     12 C          59.9779   89.5237    8.0972 C.ar    1  UNL1       -0.0000
     13 C          59.2502   88.6147    7.1516 C.ar    1  UNL1        0.0000
     14 C          59.3181   87.1279    7.3388 C.ar    1  UNL1       -0.0000
     15 C          60.1136   86.5502    8.4717 C.ar    1  UNL1       -0.0000
     16 C          60.8412   87.4593    9.4173 C.ar    1  UNL1       -0.0000
     17 C          63.1600   87.2129   12.6287 C.ar    1  UNL1       -0.0221
     18 C          63.2278   85.7262   12.8160 C.ar    1  UNL1       -0.0082
     19 C          64.0233   85.1485   13.9488 C.ar    1  UNL1       -0.0261
     20 C          64.5613   86.3813   14.6127 C.3     1  UNL1        0.0307
     21 C          64.0628   87.5733   13.8505 C.3     1  UNL1        0.0310
@<TRIPOS>BOND
     1     1     2    1
     2     2     3   ar
     3     3     4   ar
     4     4     5   ar
     5     5     6   ar
     6     6     7   ar
     7     7     8   ar
     8     8     9   ar
     9     9    10   ar
    10    10    11   ar
    11    11    12   ar
    12    12    13   ar
    13    13    14   ar
    14    14    15   ar
    15    15    16   ar
    16     8    17   ar
    17    17    18   ar
    18    18    19   ar
    19    19    20    1
    20    20    21    1
    21    19     2   ar
    22    18     5   ar
    23    16     7   ar
    24    21    17    1
    25    16    11   ar
@<TRIPOS>MOLECULE
*****
 21 25 0 0 0
SMALL
GASTEIGER

@<TRIPOS>ATOM
      1 C          63.1018   79.8079   10.1867 C.3     1  UNL1        0.0307
      2 C          63.2761   81.1548   10.8235 C.ar    1  UNL1       -0.0258
      3 C          63.9027   82.2755   10.0480 C.ar    1  UNL1       -0.0046
      4 C          64.0771   83.6224   10.6848 C.ar    1  UNL1       -0.0004
      5 C          63.6249   83.8486   12.0970 C.ar    1  UNL1       -0.0006
      6 C          63.7993   85.1954   12.7337 C.ar    1  UNL1       -0.0000
      7 C          63.3472   85.4216   14.1460 C.ar    1  UNL1       -0.0003
      8 C          62.7206   84.3009   14.9214 C.ar    1  UNL1       -0.0040
      9 C          62.2684   84.5271   16.3337 C.ar    1  UNL1       -0.0003
     10 C          62.4428   85.8739   16.9704 C.ar    1  UNL1       -0.0000
     11 C          63.0694   86.9947   16.1949 C.ar    1  UNL1       -0.0000
     12 C          63.2438   88.3416   16.8317 C.ar    1  UNL1       -0.0000
     13 C          63.8703   89.4623   16.0562 C.ar    1  UNL1        0.0000
     14 C          64.3225   89.2361   14.6440 C.ar    1  UNL1       -0.0000
     15 C          64.1481   87.8893   14.0073 C.ar    1  UNL1       -0.0000
     16 C          63.5216   86.7686   14.7827 C.ar    1  UNL1       -0.0000
     17 C          62.5462   82.9540   14.2847 C.ar    1  UNL1       -0.0221
     18 C          62.9983   82.7278   12.8724 C.ar    1  UNL1       -0.0082
     19 C          62.8240   81.3809   12.2357 C.ar    1  UNL1       -0.0261
     20 C          62.1785   80.5957   13.3387 C.3     1  UNL1        0.0307
     21 C          62.0181   81.5039   14.5218 C.3     1  UNL1        0.0310
@<TRIPOS>BOND
     1     1     2    1
     2     2     3   ar
     3     3     4   ar
     4     4     5   ar
     5     5     6   ar
     6     6     7   ar
     7     7     8   ar
     8     8     9   ar
     9     9    10   ar
    10    10    11   ar
    11    11    12   ar
    12    12    13   ar
    13    13    14   ar
    14    14    15   ar
    15    15    16   ar
    16     8    17   ar
    17    17    18   ar
    18    18    19   ar
    19    19    20    1
    20    20    21    1
    21    19     2   ar
    22    18     5   ar
    23    16     7   ar
    24    21    17    1
    25    16    11   ar
@<TRIPOS>MOLECULE
*****
 21 25 0 0 0
SMALL
GASTEIGER

@<TRIPOS>ATOM
      1 C          59.0220   89.4017    6.7696 C.3     1  UNL1        0.0307
      2 C          59.8232   88.9831    7.9665 C.ar    1  UNL1       -0.0258
      3 C          60.1506   89.9820    9.0365 C.ar    1  UNL1       -0.0046
      4 C          60.9518   89.5633   10.2336 C.ar    1  UNL1       -0.0004
      5 C          61.4256   88.1457   10.3606 C.ar    1  UNL1       -0.0006
      6 C          62.2267   87.7271   11.5575 C.ar    1  UNL1       -0.0000
      7 C          62.7005   86.3095   11.6845 C.ar    1  UNL1       -0.0003
      8 C          62.3730   85.3106   10.6145 C.ar    1  UNL1       -0.0040
      9 C          62.8468   83.8931   10.7414 C.ar    1  UNL1       -0.0003
     10 C          63.6479   83.4744   11.9384 C.ar    1  UNL1       -0.0000
     11 C          63.9754   84.4733   13.0085 C.ar    1  UNL1       -0.0000
     12 C          64.7766   84.0546   14.2055 C.ar    1  UNL1       -0.0000
     13 C          65.1041   85.0535   15.2755 C.ar    1  UNL1        0.0000
     14 C          64.6303   86.4711   15.1485 C.ar    1  UNL1       -0.0000
     15 C          63.8291   86.8898   13.9515 C.ar    1  UNL1       -0.0000
     16 C          63.5017   85.8909   12.8815 C.ar    1  UNL1       -0.0000
     17 C          61.5718   85.7293    9.4174 C.ar    1  UNL1       -0.0221
     18 C          61.0981   87.1468    9.2905 C.ar    1  UNL1       -0.0082
     19 C          60.2969   87.5655    8.0935 C.ar    1  UNL1       -0.0261
     20 C          60.2129   86.2879    7.3120 C.3     1  UNL1        0.0307
     21 C          60.9490   85.2277    8.0764 C.3     1  UNL1        0.0310
@<TRIPOS>BOND
     1     1     2    1
     2     2     3   ar
     3     3     4   ar
     4     4     5   ar
     5     5     6   ar
     6     6     7   ar
     7     7     8   ar
     8     8     9   ar
     9     9    10   ar
    10    10    11   ar
    11    11    12   ar
    12    12    13   ar
    13    13    14   ar
    14    14    15   ar
    15    15    16   ar
    16     8    17   ar
    17    17    18   ar
    18    18    19   ar
    19    19    20    1
    20    20    21    1
    21    19     2   ar
    22    18     5   ar
    23    16     7   ar
    24    21    17    1
    25    16    11   ar
@<TRIPOS>MOLECULE
*****
 21 25 0 0 0
SMALL
GASTEIGER

@<TRIPOS>ATOM
      1 C          62.7823   81.2720   13.5617 C.3     1  UNL1        0.0307
      2 C          63.1582   82.7103   13.7617 C.ar    1  UNL1       -0.0258
      3 C          63.9340   83.1206   14.9782 C.ar    1  UNL1       -0.0046
      4 C          64.3099   84.5589   15.1783 C.ar    1  UNL1       -0.0004
      5 C          63.9099   85.5869   14.1618 C.ar    1  UNL1       -0.0006
      6 C          64.2858   87.0252   14.3618 C.ar    1  UNL1       -0.0000
      7 C          63.8859   88.0533   13.3453 C.ar    1  UNL1       -0.0003
      8 C          63.1101   87.6430   12.1289 C.ar    1  UNL1       -0.0040
      9 C          62.7102   88.6711   11.1124 C.ar    1  UNL1       -0.0003
     10 C          63.0860   90.1093   11.3124 C.ar    1  UNL1       -0.0000
     11 C          63.8618   90.5196   12.5289 C.ar    1  UNL1       -0.0000
     12 C          64.2377   91.9579   12.7289 C.ar    1  UNL1       -0.0000
     13 C          65.0135   92.3682   13.9454 C.ar    1  UNL1        0.0000
     14 C          65.4134   91.3401   14.9619 C.ar    1  UNL1       -0.0000
     15 C          65.0375   89.9018   14.7619 C.ar    1  UNL1       -0.0000
     16 C          64.2618   89.4916   13.5454 C.ar    1  UNL1       -0.0000
     17 C          62.7342   86.2047   11.9288 C.ar    1  UNL1       -0.0221
     18 C          63.1341   85.1766   12.9453 C.ar    1  UNL1       -0.0082
     19 C          62.7583   83.7384   12.7453 C.ar    1  UNL1       -0.0261
     20 C          62.0162   83.7882   11.4427 C.3     1  UNL1        0.0307
     21 C          62.0022   85.2122   10.9713 C.3     1  UNL1        0.0310
@<TRIPOS>BOND
     1     1     2    1
     2     2     3   ar
     3     3     4   ar
     4     4     5   ar
     5     5     6   ar
     6     6     7   ar
     7     7     8   ar
     8     8     9   ar
     9     9    10   ar
    10    10    11   ar
    11    11    12   ar
    12    12    13   ar
    13    13    14   ar
    14    14    15   ar
    15    15    16   ar
    16     8    17   ar
    17    17    18   ar
    18    18    19   ar
    19    19    20    1
    20    20    21    1
    21    19     2   ar
    22    18     5   ar
    23    16     7   ar
    24    21    17    1
    25    16    11   ar
@<TRIPOS>MOLECULE
*****
 21 25 0 0 0
SMALL
GASTEIGER

@<TRIPOS>ATOM
      1 C          64.1002   91.9821   13.3746 C.3     1  UNL1        0.0307
      2 C          64.0501   90.4901   13.5210 C.ar    1  UNL1       -0.0258
      3 C          64.6117   89.8378   14.7494 C.ar    1  UNL1       -0.0046
      4 C          64.5616   88.3458   14.8958 C.ar    1  UNL1       -0.0004
      5 C          63.9498   87.5061   13.8138 C.ar    1  UNL1       -0.0006
      6 C          63.8996   86.0142   13.9602 C.ar    1  UNL1       -0.0000
      7 C          63.2878   85.1745   12.8782 C.ar    1  UNL1       -0.0003
      8 C          62.7261   85.8269   11.6498 C.ar    1  UNL1       -0.0040
      9 C          62.1143   84.9872   10.5679 C.ar    1  UNL1       -0.0003
     10 C          62.0641   83.4953   10.7142 C.ar    1  UNL1       -0.0000
     11 C          62.6258   82.8429   11.9427 C.ar    1  UNL1       -0.0000
     12 C          62.5757   81.3509   12.0891 C.ar    1  UNL1       -0.0000
     13 C          63.1373   80.6986   13.3174 C.ar    1  UNL1        0.0000
     14 C          63.7492   81.5382   14.3994 C.ar    1  UNL1       -0.0000
     15 C          63.7993   83.0302   14.2530 C.ar    1  UNL1       -0.0000
     16 C          63.2376   83.6825   13.0247 C.ar    1  UNL1       -0.0000
     17 C          62.7762   87.3189   11.5034 C.ar    1  UNL1       -0.0221
     18 C          63.3881   88.1585   12.5854 C.ar    1  UNL1       -0.0082
     19 C          63.4382   89.6505   12.4390 C.ar    1  UNL1       -0.0261
     20 C          62.7859   89.8550   11.1038 C.3     1  UNL1        0.0307
     21 C          62.4037   88.5088   10.5636 C.3     1  UNL1        0.0310
@<TRIPOS>BOND
     1     1     2    1
     2     2     3   ar
     3     3     4   ar
     4     4     5   ar
     5     5     6   ar
     6     6     7   ar
     7     7     8   ar
     8     8     9   ar
     9     9    10   ar
    10    10    11   ar
    11    11    12   ar
    12    12    13   ar
    13    13    14   ar
    14    14    15   ar
    15    15    16   ar
    16     8    17   ar
    17    17    18   ar
    18    18    19   ar
    19    19    20    1
    20    20    21    1
    21    19     2   ar
    22    18     5   ar
    23    16     7   ar
    24    21    17    1
    25    16    11   ar
@<TRIPOS>MOLECULE
*****
 21 25 0 0 0
SMALL
GASTEIGER

@<TRIPOS>ATOM
      1 C          59.3253   86.7551    8.0185 C.3     1  UNL1        0.0307
      2 C          60.2358   87.6995    8.7459 C.ar    1  UNL1       -0.0258
      3 C          60.4353   89.0944    8.2318 C.ar    1  UNL1       -0.0046
      4 C          61.3458   90.0388    8.9593 C.ar    1  UNL1       -0.0004
      5 C          62.0569   89.5882   10.2008 C.ar    1  UNL1       -0.0006
      6 C          62.9674   90.5325   10.9282 C.ar    1  UNL1       -0.0000
      7 C          63.6785   90.0818   12.1697 C.ar    1  UNL1       -0.0003
      8 C          63.4791   88.6869   12.6837 C.ar    1  UNL1       -0.0040
      9 C          64.1902   88.2362   13.9252 C.ar    1  UNL1       -0.0003
     10 C          65.1007   89.1805   14.6526 C.ar    1  UNL1       -0.0000
     11 C          65.3002   90.5756   14.1386 C.ar    1  UNL1       -0.0000
     12 C          66.2107   91.5199   14.8660 C.ar    1  UNL1       -0.0000
     13 C          66.4101   92.9148   14.3519 C.ar    1  UNL1        0.0000
     14 C          65.6990   93.3655   13.1105 C.ar    1  UNL1       -0.0000
     15 C          64.7885   92.4212   12.3830 C.ar    1  UNL1       -0.0000
     16 C          64.5891   91.0262   12.8971 C.ar    1  UNL1       -0.0000
     17 C          62.5685   87.7425   11.9563 C.ar    1  UNL1       -0.0221
     18 C          61.8574   88.1931   10.7148 C.ar    1  UNL1       -0.0082
     19 C          60.9469   87.2488    9.9874 C.ar    1  UNL1       -0.0261
     20 C          61.0466   86.0102   10.8275 C.3     1  UNL1        0.0307
     21 C          61.9828   86.2952   11.9643 C.3     1  UNL1        0.0310
@<TRIPOS>BOND
     1     1     2    1
     2     2     3   ar
     3     3     4   ar
     4     4     5   ar
     5     5     6   ar
     6     6     7   ar
     7     7     8   ar
     8     8     9   ar
     9     9    10   ar
    10    10    11   ar
    11    11    12   ar
    12    12    13   ar
    13    13    14   ar
    14    14    15   ar
    15    15    16   ar
    16     8    17   ar
    17    17    18   ar
    18    18    19   ar
    19    19    20    1
    20    20    21    1
    21    19     2   ar
    22    18     5   ar
    23    16     7   ar
    24    21    17    1
    25    16    11   ar
