@<TRIPOS>MOLECULE
*****
 26 28 0 0 0
SMALL
GASTEIGER

@<TRIPOS>ATOM
      1 C          63.2566   89.9424   12.5388 C.ar    1  UNL1        0.1374
      2 C          64.1881   91.1106   12.4069 C.ar    1  UNL1        0.0612
      3 C          64.7991   91.7246   13.6315 C.ar    1  UNL1        0.1483
      4 C          64.4786   91.1702   14.9880 C.ar    1  UNL1        0.0522
      5 C          63.5472   90.0020   15.1198 C.ar    1  UNL1        0.0625
      6 C          63.2267   89.4476   16.4763 C.3     1  UNL1        0.0522
      7 N          62.9361   89.3880   13.8952 N.ar    1  UNL1       -0.2449
      8 N          62.0803   87.9402   11.3735 N.am    1  UNL1       -0.2646
      9 C          62.6456   89.3284   11.3141 C.2     1  UNL1        0.2684
     10 O          62.5998   90.1026   10.0302 O.2     1  UNL1       -0.2681
     11 H          62.1104   87.4321   12.2162 H       1  UNL1        0.1566
     12 C          61.6697   85.7905    8.0629 C.ar    1  UNL1        0.0604
     13 C          60.2473   86.0983    7.6997 C.ar    1  UNL1        0.0148
     14 C          59.4358   87.0200    8.5610 C.ar    1  UNL1        0.0041
     15 C          60.0468   87.6340    9.7856 C.ar    1  UNL1        0.0345
     16 C          61.4692   87.3262   10.1488 C.ar    1  UNL1        0.1340
     17 N          62.2807   86.4045    9.2874 N.ar    1  UNL1       -0.2348
     18 C          61.9171   84.3607    5.9078 C.3     1  UNL1        0.0067
     19 C          62.4811   84.8688    7.2015 C.3     1  UNL1        0.0459
     20 O          65.7307   92.8929   13.4997 O.3     1  UNL1       -0.4502
     21 C          66.3739   93.1938   12.1785 C.ar    1  UNL1        0.1835
     22 C          66.0015   94.4388   11.4292 C.ar    1  UNL1        0.1396
     23 N          66.6447   94.7397   10.1080 N.ar    1  UNL1       -0.2192
     24 C          67.6605   93.7957    9.5360 C.ar    1  UNL1        0.1991
     25 N          68.0329   92.5508   10.2853 N.ar    1  UNL1       -0.2192
     26 C          67.3897   92.2499   11.6065 C.ar    1  UNL1        0.1396
@<TRIPOS>BOND
     1    18    19    1
     2    19    12    1
     3    12    13   ar
     4    13    14   ar
     5    14    15   ar
     6    15    16   ar
     7    16     8    1
     8     8     9   am
     9     9    10    2
    10     9     1    1
    11     1     2   ar
    12     2     3   ar
    13     3    20    1
    14    20    21    1
    15    21    22   ar
    16    22    23   ar
    17    23    24   ar
    18    24    25   ar
    19    25    26   ar
    20     3     4   ar
    21     4     5   ar
    22     5     6    1
    23     5     7   ar
    24    16    17   ar
    25    17    12   ar
    26     7     1   ar
    27    26    21   ar
    28     8    11    1
@<TRIPOS>MOLECULE
*****
 26 28 0 0 0
SMALL
GASTEIGER

@<TRIPOS>ATOM
      1 C          63.3312   90.0011   12.6339 C.ar    1  UNL1        0.1374
      2 C          64.2715   91.1675   12.5606 C.ar    1  UNL1        0.0612
      3 C          64.8572   91.7388   13.8178 C.ar    1  UNL1        0.1483
      4 C          64.5026   91.1438   15.1482 C.ar    1  UNL1        0.0522
      5 C          63.5623   89.9774   15.2216 C.ar    1  UNL1        0.0625
      6 C          63.2077   89.3824   16.5521 C.3     1  UNL1        0.0522
      7 N          62.9766   89.4061   13.9644 N.ar    1  UNL1       -0.2449
      8 N          61.9484   88.1602   11.4302 N.am    1  UNL1       -0.2646
      9 C          62.7454   89.4298   11.3767 C.2     1  UNL1        0.2684
     10 O          62.9567   90.1281   10.0661 O.2     1  UNL1       -0.2681
     11 H          61.8098   87.7019   12.2904 H       1  UNL1        0.1566
     12 C          59.8253   87.8345    8.0930 C.ar    1  UNL1        0.0604
     13 C          60.1912   86.4462    7.6587 C.ar    1  UNL1        0.0148
     14 C          61.1427   85.6292    8.4815 C.ar    1  UNL1        0.0041
     15 C          61.7285   86.2005    9.7386 C.ar    1  UNL1        0.0345
     16 C          61.3627   87.5888   10.1730 C.ar    1  UNL1        0.1340
     17 N          60.4111   88.4058    9.3502 N.ar    1  UNL1       -0.2348
     18 C          59.4009   89.6849    6.3194 C.3     1  UNL1        0.0067
     19 C          58.8738   88.6515    7.2702 C.3     1  UNL1        0.0459
     20 O          65.7976   92.9052   13.7445 O.3     1  UNL1       -0.4502
     21 C          66.4499   93.2620   12.4417 C.ar    1  UNL1        0.1835
     22 C          67.3257   92.2642   11.7434 C.ar    1  UNL1        0.1396
     23 N          67.9779   92.6210   10.4406 N.ar    1  UNL1       -0.2192
     24 C          67.7544   93.9755    9.8361 C.ar    1  UNL1        0.1991
     25 N          66.8786   94.9732   10.5344 N.ar    1  UNL1       -0.2192
     26 C          66.2264   94.6164   11.8372 C.ar    1  UNL1        0.1396
@<TRIPOS>BOND
     1    18    19    1
     2    19    12    1
     3    12    13   ar
     4    13    14   ar
     5    14    15   ar
     6    15    16   ar
     7    16     8    1
     8     8     9   am
     9     9    10    2
    10     9     1    1
    11     1     2   ar
    12     2     3   ar
    13     3    20    1
    14    20    21    1
    15    21    22   ar
    16    22    23   ar
    17    23    24   ar
    18    24    25   ar
    19    25    26   ar
    20     3     4   ar
    21     4     5   ar
    22     5     6    1
    23     5     7   ar
    24    16    17   ar
    25    17    12   ar
    26     7     1   ar
    27    26    21   ar
    28     8    11    1
@<TRIPOS>MOLECULE
*****
 26 28 0 0 0
SMALL
GASTEIGER

@<TRIPOS>ATOM
      1 C          61.6171   87.9694   10.9045 C.ar    1  UNL1        0.1374
      2 C          62.7225   88.8919   10.4841 C.ar    1  UNL1        0.0612
      3 C          62.5195   90.3772   10.5336 C.ar    1  UNL1        0.1483
      4 C          61.2109   90.9400   11.0036 C.ar    1  UNL1        0.0522
      5 C          60.1054   90.0175   11.4240 C.ar    1  UNL1        0.0625
      6 C          58.7969   90.5803   11.8940 C.3     1  UNL1        0.0522
      7 N          60.3085   88.5322   11.3745 N.ar    1  UNL1       -0.2449
      8 N          62.6774   85.8094   11.8846 N.am    1  UNL1       -0.2646
      9 C          61.8201   86.4839   10.8550 C.2     1  UNL1        0.2684
     10 O          61.1658   85.6731    9.7759 O.2     1  UNL1       -0.2681
     11 H          63.1069   86.3416   12.5928 H       1  UNL1        0.1566
     12 C          62.5839   81.9757   12.9062 C.ar    1  UNL1        0.0604
     13 C          63.2865   81.3533   11.7361 C.ar    1  UNL1        0.0148
     14 C          63.7861   82.2163   10.6156 C.ar    1  UNL1        0.0041
     15 C          63.5831   83.7017   10.6650 C.ar    1  UNL1        0.0345
     16 C          62.8805   84.3240   11.8351 C.ar    1  UNL1        0.1340
     17 N          62.3809   83.4610   12.9556 N.ar    1  UNL1       -0.2348
     18 C          60.6252   80.7791   14.1232 C.3     1  UNL1        0.0067
     19 C          62.0844   81.1127   14.0267 C.3     1  UNL1        0.0459
     20 O          63.6250   91.2998   10.1131 O.3     1  UNL1       -0.4502
     21 C          64.5154   91.9234   11.1467 C.ar    1  UNL1        0.1835
     22 C          64.3401   91.5763   12.5955 C.ar    1  UNL1        0.1396
     23 N          65.2305   92.1998   13.6291 N.ar    1  UNL1       -0.2192
     24 C          66.2961   93.1705   13.2140 C.ar    1  UNL1        0.1991
     25 N          66.4714   93.5175   11.7653 N.ar    1  UNL1       -0.2192
     26 C          65.5810   92.8939   10.7317 C.ar    1  UNL1        0.1396
@<TRIPOS>BOND
     1    18    19    1
     2    19    12    1
     3    12    13   ar
     4    13    14   ar
     5    14    15   ar
     6    15    16   ar
     7    16     8    1
     8     8     9   am
     9     9    10    2
    10     9     1    1
    11     1     2   ar
    12     2     3   ar
    13     3    20    1
    14    20    21    1
    15    21    22   ar
    16    22    23   ar
    17    23    24   ar
    18    24    25   ar
    19    25    26   ar
    20     3     4   ar
    21     4     5   ar
    22     5     6    1
    23     5     7   ar
    24    16    17   ar
    25    17    12   ar
    26     7     1   ar
    27    26    21   ar
    28     8    11    1
@<TRIPOS>MOLECULE
*****
 26 28 0 0 0
SMALL
GASTEIGER

@<TRIPOS>ATOM
      1 C          63.5448   88.1902   12.8847 C.ar    1  UNL1        0.1374
      2 C          64.0265   89.1335   13.9468 C.ar    1  UNL1        0.0612
      3 C          63.9185   90.6151   13.7390 C.ar    1  UNL1        0.1483
      4 C          63.3286   91.1533   12.4692 C.ar    1  UNL1        0.0522
      5 C          62.8468   90.2099   11.4072 C.ar    1  UNL1        0.0625
      6 C          62.2570   90.7481   10.1374 C.3     1  UNL1        0.0522
      7 N          62.9549   88.7284   11.6149 N.ar    1  UNL1       -0.2449
      8 N          63.1316   85.7649   12.0495 N.am    1  UNL1       -0.2646
      9 C          63.6529   86.7085   13.0925 C.2     1  UNL1        0.2684
     10 O          64.2822   86.1705   14.3433 O.2     1  UNL1       -0.2681
     11 H          62.7185   86.1180   11.2286 H       1  UNL1        0.1566
     12 C          62.4821   82.1222   13.4844 C.ar    1  UNL1        0.0604
     13 C          63.4557   81.3201   12.6728 C.ar    1  UNL1        0.0148
     14 C          64.3213   81.9996   11.6534 C.ar    1  UNL1        0.0041
     15 C          64.2132   83.4812   11.4456 C.ar    1  UNL1        0.0345
     16 C          63.2397   84.2833   12.2572 C.ar    1  UNL1        0.1340
     17 N          62.3741   83.6038   13.2766 N.ar    1  UNL1       -0.2348
     18 C          60.4200   80.6522   14.0644 C.3     1  UNL1        0.0067
     19 C          61.6166   81.4427   14.5038 C.3     1  UNL1        0.0459
     20 O          64.4002   91.5585   14.8010 O.3     1  UNL1       -0.4502
     21 C          65.8483   91.9453   14.8598 C.ar    1  UNL1        0.1835
     22 C          66.7305   91.7327   13.6653 C.ar    1  UNL1        0.1396
     23 N          68.1785   92.1196   13.7241 N.ar    1  UNL1       -0.2192
     24 C          68.7445   92.7190   14.9773 C.ar    1  UNL1        0.1991
     25 N          67.8623   92.9315   16.1717 N.ar    1  UNL1       -0.2192
     26 C          66.4142   92.5447   16.1129 C.ar    1  UNL1        0.1396
@<TRIPOS>BOND
     1    18    19    1
     2    19    12    1
     3    12    13   ar
     4    13    14   ar
     5    14    15   ar
     6    15    16   ar
     7    16     8    1
     8     8     9   am
     9     9    10    2
    10     9     1    1
    11     1     2   ar
    12     2     3   ar
    13     3    20    1
    14    20    21    1
    15    21    22   ar
    16    22    23   ar
    17    23    24   ar
    18    24    25   ar
    19    25    26   ar
    20     3     4   ar
    21     4     5   ar
    22     5     6    1
    23     5     7   ar
    24    16    17   ar
    25    17    12   ar
    26     7     1   ar
    27    26    21   ar
    28     8    11    1
@<TRIPOS>MOLECULE
*****
 26 28 0 0 0
SMALL
GASTEIGER

@<TRIPOS>ATOM
      1 C          62.2848   89.5527   10.6024 C.ar    1  UNL1        0.1374
      2 C          62.2468   88.2559   11.3552 C.ar    1  UNL1        0.0612
      3 C          61.3086   87.1670   10.9264 C.ar    1  UNL1        0.1483
      4 C          60.4083   87.3749    9.7447 C.ar    1  UNL1        0.0522
      5 C          60.4463   88.6717    8.9919 C.ar    1  UNL1        0.0625
      6 C          59.5461   88.8796    7.8102 C.3     1  UNL1        0.0522
      7 N          61.3845   89.7606    9.4207 N.ar    1  UNL1       -0.2449
      8 N          63.8522   90.5968   12.3921 N.am    1  UNL1       -0.2646
      9 C          63.2230   90.6417   11.0312 C.2     1  UNL1        0.2684
     10 O          63.5320   91.7756   10.0991 O.2     1  UNL1       -0.2681
     11 H          63.6494   89.8526   13.0039 H       1  UNL1        0.1566
     12 C          66.2667   92.7929   14.6499 C.ar    1  UNL1        0.0604
     13 C          66.6669   93.8636   13.6787 C.ar    1  UNL1        0.0148
     14 C          66.1289   93.8455   12.2786 C.ar    1  UNL1        0.0041
     15 C          65.1906   92.7566   11.8498 C.ar    1  UNL1        0.0345
     16 C          64.7905   91.6858   12.8210 C.ar    1  UNL1        0.1340
     17 N          65.3285   91.7040   14.2210 N.ar    1  UNL1       -0.2348
     18 C          68.2324   92.4315   16.3098 C.3     1  UNL1        0.0067
     19 C          66.8047   92.8111   16.0500 C.3     1  UNL1        0.0459
     20 O          61.2705   85.8701   11.6792 O.3     1  UNL1       -0.4502
     21 C          62.3819   84.8759   11.5170 C.ar    1  UNL1        0.1835
     22 C          63.0010   84.2391   12.7259 C.ar    1  UNL1        0.1396
     23 N          64.1124   83.2449   12.5637 N.ar    1  UNL1       -0.2192
     24 C          64.6048   82.8875   11.1926 C.ar    1  UNL1        0.1991
     25 N          63.9858   83.5243    9.9838 N.ar    1  UNL1       -0.2192
     26 C          62.8743   84.5185   10.1460 C.ar    1  UNL1        0.1396
@<TRIPOS>BOND
     1    18    19    1
     2    19    12    1
     3    12    13   ar
     4    13    14   ar
     5    14    15   ar
     6    15    16   ar
     7    16     8    1
     8     8     9   am
     9     9    10    2
    10     9     1    1
    11     1     2   ar
    12     2     3   ar
    13     3    20    1
    14    20    21    1
    15    21    22   ar
    16    22    23   ar
    17    23    24   ar
    18    24    25   ar
    19    25    26   ar
    20     3     4   ar
    21     4     5   ar
    22     5     6    1
    23     5     7   ar
    24    16    17   ar
    25    17    12   ar
    26     7     1   ar
    27    26    21   ar
    28     8    11    1
@<TRIPOS>MOLECULE
*****
 26 28 0 0 0
SMALL
GASTEIGER

@<TRIPOS>ATOM
      1 C          63.3881   90.0287   12.1013 C.ar    1  UNL1        0.1374
      2 C          63.2658   89.4510   13.4801 C.ar    1  UNL1        0.0612
      3 C          63.9957   90.0856   14.6266 C.ar    1  UNL1        0.1483
      4 C          64.8479   91.2980   14.3942 C.ar    1  UNL1        0.0522
      5 C          64.9702   91.8757   13.0154 C.ar    1  UNL1        0.0625
      6 C          65.8224   93.0880   12.7830 C.3     1  UNL1        0.0522
      7 N          64.2403   91.2410   11.8689 N.ar    1  UNL1       -0.2449
      8 N          62.2813   87.9435   11.0163 N.am    1  UNL1       -0.2646
      9 C          62.6582   89.3940   10.9547 C.2     1  UNL1        0.2684
     10 O          62.3053   90.2100    9.7466 O.2     1  UNL1       -0.2681
     11 H          62.5130   87.4079   11.8093 H       1  UNL1        0.1566
     12 C          61.5499   85.7568    7.7862 C.ar    1  UNL1        0.0604
     13 C          60.0918   86.0395    7.5767 C.ar    1  UNL1        0.0148
     14 C          59.3635   86.9569    8.5137 C.ar    1  UNL1        0.0041
     15 C          60.0933   87.5916    9.6603 C.ar    1  UNL1        0.0345
     16 C          61.5514   87.3088    9.8698 C.ar    1  UNL1        0.1340
     17 N          62.2797   86.3914    8.9327 N.ar    1  UNL1       -0.2348
     18 C          61.5360   84.1604    5.7365 C.3     1  UNL1        0.0067
     19 C          62.2782   84.8394    6.8492 C.3     1  UNL1        0.0459
     20 O          63.8734   89.5079   16.0055 O.3     1  UNL1       -0.4502
     21 C          63.4636   88.0762   16.1852 C.ar    1  UNL1        0.1835
     22 C          64.0680   87.0090   15.3214 C.ar    1  UNL1        0.1396
     23 N          63.6582   85.5773   15.5011 N.ar    1  UNL1       -0.2192
     24 C          62.6441   85.2128   16.5446 C.ar    1  UNL1        0.1991
     25 N          62.0398   86.2799   17.4083 N.ar    1  UNL1       -0.2192
     26 C          62.4496   87.7116   17.2286 C.ar    1  UNL1        0.1396
@<TRIPOS>BOND
     1    18    19    1
     2    19    12    1
     3    12    13   ar
     4    13    14   ar
     5    14    15   ar
     6    15    16   ar
     7    16     8    1
     8     8     9   am
     9     9    10    2
    10     9     1    1
    11     1     2   ar
    12     2     3   ar
    13     3    20    1
    14    20    21    1
    15    21    22   ar
    16    22    23   ar
    17    23    24   ar
    18    24    25   ar
    19    25    26   ar
    20     3     4   ar
    21     4     5   ar
    22     5     6    1
    23     5     7   ar
    24    16    17   ar
    25    17    12   ar
    26     7     1   ar
    27    26    21   ar
    28     8    11    1
@<TRIPOS>MOLECULE
*****
 26 28 0 0 0
SMALL
GASTEIGER

@<TRIPOS>ATOM
      1 C          63.7370   86.7355   14.9968 C.ar    1  UNL1        0.1374
      2 C          63.9257   88.1294   14.4759 C.ar    1  UNL1        0.0612
      3 C          63.6881   89.3051   15.3766 C.ar    1  UNL1        0.1483
      4 C          63.2619   89.0869   16.7981 C.ar    1  UNL1        0.0522
      5 C          63.0733   87.6930   17.3190 C.ar    1  UNL1        0.0625
      6 C          62.6471   87.4747   18.7405 C.3     1  UNL1        0.0522
      7 N          63.3108   86.5173   16.4183 N.ar    1  UNL1       -0.2449
      8 N          62.9509   85.1854   13.0656 N.am    1  UNL1       -0.2646
      9 C          63.9746   85.5597   14.0961 C.2     1  UNL1        0.2684
     10 O          65.2358   84.7582   14.2260 O.2     1  UNL1       -0.2681
     11 H          62.1231   85.7115   12.9803 H       1  UNL1        0.1566
     12 C          63.0689   81.4519   11.7252 C.ar    1  UNL1        0.0604
     13 C          63.6635   81.6581   10.3637 C.ar    1  UNL1        0.0148
     14 C          64.0207   83.0402    9.9028 C.ar    1  UNL1        0.0041
     15 C          63.7832   84.2159   10.8034 C.ar    1  UNL1        0.0345
     16 C          63.1885   84.0097   12.1649 C.ar    1  UNL1        0.1340
     17 N          62.8313   82.6276   12.6258 N.ar    1  UNL1       -0.2348
     18 C          62.0842   79.8673   13.5334 C.3     1  UNL1        0.0067
     19 C          62.7117   80.0698   12.1861 C.3     1  UNL1        0.0459
     20 O          63.8768   90.6991   14.8558 O.3     1  UNL1       -0.4502
     21 C          65.1796   91.4105   15.0717 C.ar    1  UNL1        0.1835
     22 C          66.2823   91.2785   14.0635 C.ar    1  UNL1        0.1396
     23 N          67.5851   91.9899   14.2795 N.ar    1  UNL1       -0.2192
     24 C          67.7851   92.8334   15.5037 C.ar    1  UNL1        0.1991
     25 N          66.6824   92.9654   16.5118 N.ar    1  UNL1       -0.2192
     26 C          65.3796   92.2540   16.2959 C.ar    1  UNL1        0.1396
@<TRIPOS>BOND
     1    18    19    1
     2    19    12    1
     3    12    13   ar
     4    13    14   ar
     5    14    15   ar
     6    15    16   ar
     7    16     8    1
     8     8     9   am
     9     9    10    2
    10     9     1    1
    11     1     2   ar
    12     2     3   ar
    13     3    20    1
    14    20    21    1
    15    21    22   ar
    16    22    23   ar
    17    23    24   ar
    18    24    25   ar
    19    25    26   ar
    20     3     4   ar
    21     4     5   ar
    22     5     6    1
    23     5     7   ar
    24    16    17   ar
    25    17    12   ar
    26     7     1   ar
    27    26    21   ar
    28     8    11    1
@<TRIPOS>MOLECULE
*****
 26 28 0 0 0
SMALL
GASTEIGER

@<TRIPOS>ATOM
      1 C          62.2562   89.5365   10.5713 C.ar    1  UNL1        0.1374
      2 C          62.2230   88.2496   11.3411 C.ar    1  UNL1        0.0612
      3 C          61.2999   87.1458   10.9174 C.ar    1  UNL1        0.1483
      4 C          60.4101   87.3289    9.7238 C.ar    1  UNL1        0.0522
      5 C          60.4433   88.6159    8.9540 C.ar    1  UNL1        0.0625
      6 C          59.5534   88.7990    7.7604 C.3     1  UNL1        0.0522
      7 N          61.3664   89.7196    9.3777 N.ar    1  UNL1       -0.2449
      8 N          63.8639   90.5753   12.3280 N.am    1  UNL1       -0.2646
      9 C          63.1793   90.6403   10.9950 C.2     1  UNL1        0.2684
     10 O          63.4178   91.8092   10.0856 O.2     1  UNL1       -0.2681
     11 H          63.7074   89.8082   12.9249 H       1  UNL1        0.1566
     12 C          66.0347   93.8960   12.2236 C.ar    1  UNL1        0.0604
     13 C          66.6331   93.8868   13.5990 C.ar    1  UNL1        0.0148
     14 C          66.3085   92.7738   14.5508 C.ar    1  UNL1        0.0041
     15 C          65.3855   91.6700   14.1271 C.ar    1  UNL1        0.0345
     16 C          64.7870   91.6792   12.7517 C.ar    1  UNL1        0.1340
     17 N          65.1117   92.7922   11.8000 N.ar    1  UNL1       -0.2348
     18 C          67.1440   94.7251   10.0255 C.3     1  UNL1        0.0067
     19 C          66.3593   95.0090   11.2719 C.3     1  UNL1        0.0459
     20 O          61.2667   85.8588   11.6873 O.3     1  UNL1       -0.4502
     21 C          62.3878   84.8721   11.5475 C.ar    1  UNL1        0.1835
     22 C          63.0252   84.2829   12.7709 C.ar    1  UNL1        0.1396
     23 N          64.1463   83.2962   12.6312 N.ar    1  UNL1       -0.2192
     24 C          64.6301   82.8988   11.2680 C.ar    1  UNL1        0.1991
     25 N          63.9927   83.4880   10.0447 N.ar    1  UNL1       -0.2192
     26 C          62.8716   84.4747   10.1845 C.ar    1  UNL1        0.1396
@<TRIPOS>BOND
     1    18    19    1
     2    19    12    1
     3    12    13   ar
     4    13    14   ar
     5    14    15   ar
     6    15    16   ar
     7    16     8    1
     8     8     9   am
     9     9    10    2
    10     9     1    1
    11     1     2   ar
    12     2     3   ar
    13     3    20    1
    14    20    21    1
    15    21    22   ar
    16    22    23   ar
    17    23    24   ar
    18    24    25   ar
    19    25    26   ar
    20     3     4   ar
    21     4     5   ar
    22     5     6    1
    23     5     7   ar
    24    16    17   ar
    25    17    12   ar
    26     7     1   ar
    27    26    21   ar
    28     8    11    1
@<TRIPOS>MOLECULE
*****
 26 28 0 0 0
SMALL
GASTEIGER

@<TRIPOS>ATOM
      1 C          64.0909   88.2682   15.0522 C.ar    1  UNL1        0.1374
      2 C          64.5892   87.0330   14.3624 C.ar    1  UNL1        0.0612
      3 C          64.3611   85.6853   14.9801 C.ar    1  UNL1        0.1483
      4 C          63.6346   85.5729   16.2877 C.ar    1  UNL1        0.0522
      5 C          63.1363   86.8081   16.9774 C.ar    1  UNL1        0.0625
      6 C          62.4098   86.6956   18.2850 C.3     1  UNL1        0.0522
      7 N          63.3644   88.1558   16.3597 N.ar    1  UNL1       -0.2449
      8 N          65.6739   90.2552   14.5082 N.am    1  UNL1       -0.2646
      9 C          64.3190   89.6160   14.4344 C.2     1  UNL1        0.2684
     10 O          63.1921   90.3245   13.7429 O.2     1  UNL1       -0.2681
     11 H          66.4135   89.7902   14.9620 H       1  UNL1        0.1566
     12 C          65.9291   93.1439   11.7988 C.ar    1  UNL1        0.0604
     13 C          66.3582   94.2984   12.6549 C.ar    1  UNL1        0.0148
     14 C          66.5593   94.1052   14.1288 C.ar    1  UNL1        0.0041
     15 C          66.3312   92.7575   14.7465 C.ar    1  UNL1        0.0345
     16 C          65.9020   91.6030   13.8904 C.ar    1  UNL1        0.1340
     17 N          65.7010   91.7962   12.4166 N.ar    1  UNL1       -0.2348
     18 C          66.5721   94.3253    9.5761 C.3     1  UNL1        0.0067
     19 C          65.7281   93.3371   10.3250 C.3     1  UNL1        0.0459
     20 O          64.8594   84.4500   14.2904 O.3     1  UNL1       -0.4502
     21 C          63.8973   83.3643   13.9086 C.ar    1  UNL1        0.1835
     22 C          64.0881   82.6099   12.6262 C.ar    1  UNL1        0.1396
     23 N          63.1260   81.5242   12.2445 N.ar    1  UNL1       -0.2192
     24 C          61.9731   81.1930   13.1452 C.ar    1  UNL1        0.1991
     25 N          61.7823   81.9475   14.4275 N.ar    1  UNL1       -0.2192
     26 C          62.7444   83.0331   14.8092 C.ar    1  UNL1        0.1396
@<TRIPOS>BOND
     1    18    19    1
     2    19    12    1
     3    12    13   ar
     4    13    14   ar
     5    14    15   ar
     6    15    16   ar
     7    16     8    1
     8     8     9   am
     9     9    10    2
    10     9     1    1
    11     1     2   ar
    12     2     3   ar
    13     3    20    1
    14    20    21    1
    15    21    22   ar
    16    22    23   ar
    17    23    24   ar
    18    24    25   ar
    19    25    26   ar
    20     3     4   ar
    21     4     5   ar
    22     5     6    1
    23     5     7   ar
    24    16    17   ar
    25    17    12   ar
    26     7     1   ar
    27    26    21   ar
    28     8    11    1
