@<TRIPOS>MOLECULE
*****
 45 48 0 0 0
SMALL
GASTEIGER

@<TRIPOS>ATOM
      1 C          63.7435   87.4713   15.1071 C.3     1  UNL1        0.1246
      2 C          63.5154   88.8704   12.9299 C.2     1  UNL1        0.2493
      3 O          62.6837   87.7824   12.3178 O.2     1  UNL1       -0.2699
      4 N          64.0453   88.7149   14.3245 N.am    1  UNL1       -0.2711
      5 C          65.9020   94.4739   11.0163 C.ar    1  UNL1        0.2924
      6 N          64.9156   93.9084   10.0380 N.ar    1  UNL1       -0.1946
      7 C          64.4207   92.6010   10.5819 C.ar    1  UNL1        0.1202
      8 C          63.4384   91.6000   10.0500 C.ar    1  UNL1        0.0225
      9 C          63.1366   90.3565   10.8327 C.ar    1  UNL1        0.0063
     10 C          63.8172   90.1140   12.1472 C.ar    1  UNL1        0.0567
     11 C          64.7996   91.1150   12.6790 C.ar    1  UNL1        0.0437
     12 C          65.1014   92.3585   11.8964 C.ar    1  UNL1        0.1662
     13 O          66.0168   93.5160   12.1648 O.2     1  UNL1       -0.4237
     14 N          66.6434   95.7698   10.8715 N.pl3   1  UNL1       -0.2619
     15 C          66.4630   96.8551   11.8910 C.3     1  UNL1        0.1166
     16 C          67.1112   96.7882    8.5275 C.3     1  UNL1        0.0233
     17 C          67.5653   95.9804    9.7071 C.3     1  UNL1        0.0952
     18 C          64.8770   89.8029   14.9365 C.3     1  UNL1        0.1205
     19 C          64.2295   90.8496   15.7938 C.3     1  UNL1        0.1067
     20 C          65.3553   91.7935   15.4917 C.3     1  UNL1        0.0311
     21 C          63.1036   89.9057   16.0959 C.3     1  UNL1        0.0311
     22 O          63.5819   91.8964   16.6512 O.3     1  UNL1       -0.3851
     23 H          64.1287   92.6975   16.6518 H       1  UNL1        0.2103
     24 C          64.4648   86.1941   14.7934 C.3     1  UNL1        0.1484
     25 O          65.9533   86.1130   14.9599 O.3     1  UNL1       -0.3810
     26 H          66.2580   85.2249   14.7162 H       1  UNL1        0.2105
     27 C          63.6975   84.9980   14.3132 C.3     1  UNL1        0.1075
     28 N          62.7215   85.1374   13.1827 N.am    1  UNL1       -0.2695
     29 C          63.0669   84.6049   11.8236 C.2     1  UNL1        0.4020
     30 O          64.3884   83.9329   11.5951 O.2     1  UNL1       -0.2264
     31 H          61.8542   85.5784   13.3327 H       1  UNL1        0.1528
     32 O          62.0909   84.7443   10.6932 O.3     1  UNL1       -0.4291
     33 C          62.3647   85.7129    9.5811 C.3     1  UNL1        0.2447
     34 C          61.2399   86.5036    8.9813 C.ar    1  UNL1        0.0714
     35 C          60.8716   87.9156    9.3284 C.ar    1  UNL1        0.1053
     36 N          59.6900   88.3058    8.4907 N.ar    1  UNL1       -0.2350
     37 C          59.3281   87.1348    7.6259 C.ar    1  UNL1        0.1343
     38 S          60.2859   86.0210    7.9291 S.2     1  UNL1       -0.0652
     39 C          63.9063   83.6624   14.9634 C.3     1  UNL1        0.0485
     40 C          63.1733   82.4572   14.4534 C.ar    1  UNL1       -0.0204
     41 C          63.9127   81.3949   13.6954 C.ar    1  UNL1       -0.0042
     42 C          63.1797   80.1896   13.1854 C.ar    1  UNL1       -0.0003
     43 C          61.7073   80.0467   13.4334 C.ar    1  UNL1       -0.0000
     44 C          60.9679   81.1091   14.1915 C.ar    1  UNL1       -0.0003
     45 C          61.7008   82.3143   14.7015 C.ar    1  UNL1       -0.0042
@<TRIPOS>BOND
     1    16    17    1
     2    17    14    1
     3    14    15    1
     4    14     5    1
     5     5     6   ar
     6     6     7   ar
     7     7     8   ar
     8     8     9   ar
     9     9    10   ar
    10    10     2    1
    11     2     3    2
    12     2     4   am
    13     4     1    1
    14     1    24    1
    15    24    25    1
    16    24    27    1
    17    27    39    1
    18    39    40    1
    19    40    41   ar
    20    41    42   ar
    21    42    43   ar
    22    43    44   ar
    23    44    45   ar
    24    27    28    1
    25    28    29   am
    26    29    30    2
    27    29    32    1
    28    32    33    1
    29    33    34    1
    30    34    35   ar
    31    35    36   ar
    32    36    37   ar
    33    37    38   ar
    34     4    18    1
    35    18    19    1
    36    19    20    1
    37    19    21    1
    38    19    22    1
    39    10    11   ar
    40    11    12   ar
    41    12    13   ar
    42    13     5   ar
    43    12     7   ar
    44    45    40   ar
    45    38    34   ar
    46    25    26    1
    47    28    31    1
    48    22    23    1
@<TRIPOS>MOLECULE
*****
 45 48 0 0 0
SMALL
GASTEIGER

@<TRIPOS>ATOM
      1 C          61.5969   87.0912   11.3460 C.3     1  UNL1        0.1246
      2 C          63.3112   88.5861   12.6016 C.2     1  UNL1        0.2493
      3 O          63.5124   87.5016   13.6181 O.2     1  UNL1       -0.2699
      4 N          62.3535   88.3810   11.4656 N.am    1  UNL1       -0.2711
      5 C          65.9673   94.2632   11.3879 C.ar    1  UNL1        0.2924
      6 N          66.2460   93.7880   12.7831 N.ar    1  UNL1       -0.1946
      7 C          65.5808   92.4553   12.9604 C.ar    1  UNL1        0.1202
      8 C          65.5140   91.5140   14.1264 C.ar    1  UNL1        0.0225
      9 C          64.7575   90.2243   14.0068 C.ar    1  UNL1        0.0063
     10 C          64.0677   89.8759   12.7212 C.ar    1  UNL1        0.0567
     11 C          64.1345   90.8171   11.5552 C.ar    1  UNL1        0.0437
     12 C          64.8910   92.1068   11.6748 C.ar    1  UNL1        0.1662
     13 O          65.1299   93.2242   10.7030 O.2     1  UNL1       -0.4237
     14 N          66.4426   95.5512   10.7838 N.pl3   1  UNL1       -0.2619
     15 C          66.1217   96.8559   11.4507 C.3     1  UNL1        0.1166
     16 C          68.0557   94.3285    9.1551 C.3     1  UNL1        0.0233
     17 C          67.2389   95.5346    9.5128 C.3     1  UNL1        0.0952
     18 C          62.1522   89.4655   10.4491 C.3     1  UNL1        0.1205
     19 C          60.7725   89.9813   10.1659 C.3     1  UNL1        0.1067
     20 C          60.7409   89.1955    8.8886 C.3     1  UNL1        0.0311
     21 C          60.8041   90.7671   11.4431 C.3     1  UNL1        0.0311
     22 O          59.3927   90.4972    9.8827 O.3     1  UNL1       -0.3851
     23 H          59.0760   90.1293    9.0429 H       1  UNL1        0.2103
     24 C          62.1998   85.9338   10.6066 C.3     1  UNL1        0.1484
     25 O          62.3246   85.9814    9.1125 O.3     1  UNL1       -0.3810
     26 H          62.7321   85.1600    8.7958 H       1  UNL1        0.2105
     27 C          62.6780   84.7289   11.3611 C.3     1  UNL1        0.1075
     28 N          63.3279   84.8934   12.7030 N.am    1  UNL1       -0.2695
     29 C          64.6358   84.2178   12.9908 C.2     1  UNL1        0.4020
     30 O          65.2938   83.3775   11.9368 O.2     1  UNL1       -0.2264
     31 H          62.8960   85.4449   13.3948 H       1  UNL1        0.1528
     32 O          65.2857   84.3823   14.3326 O.3     1  UNL1       -0.4291
     33 C          64.5499   83.9810   15.5766 C.3     1  UNL1        0.2447
     34 C          63.4897   84.8782   16.1433 C.ar    1  UNL1        0.0714
     35 C          62.0083   84.6957   15.9945 C.ar    1  UNL1        0.1053
     36 N          61.3278   85.8201   16.7175 N.ar    1  UNL1       -0.2350
     37 C          62.3886   86.6975   17.3132 C.ar    1  UNL1        0.1343
     38 S          63.7248   86.1154   16.9583 S.2     1  UNL1       -0.0652
     39 C          62.5063   83.3593   10.7739 C.3     1  UNL1        0.0485
     40 C          62.4141   82.1633   11.6744 C.ar    1  UNL1       -0.0204
     41 C          62.8528   80.8167   11.1801 C.ar    1  UNL1       -0.0042
     42 C          62.7605   79.6206   12.0807 C.ar    1  UNL1       -0.0003
     43 C          62.2295   79.7712   13.4755 C.ar    1  UNL1       -0.0000
     44 C          61.7908   81.1178   13.9697 C.ar    1  UNL1       -0.0003
     45 C          61.8831   82.3138   13.0692 C.ar    1  UNL1       -0.0042
@<TRIPOS>BOND
     1    16    17    1
     2    17    14    1
     3    14    15    1
     4    14     5    1
     5     5     6   ar
     6     6     7   ar
     7     7     8   ar
     8     8     9   ar
     9     9    10   ar
    10    10     2    1
    11     2     3    2
    12     2     4   am
    13     4     1    1
    14     1    24    1
    15    24    25    1
    16    24    27    1
    17    27    39    1
    18    39    40    1
    19    40    41   ar
    20    41    42   ar
    21    42    43   ar
    22    43    44   ar
    23    44    45   ar
    24    27    28    1
    25    28    29   am
    26    29    30    2
    27    29    32    1
    28    32    33    1
    29    33    34    1
    30    34    35   ar
    31    35    36   ar
    32    36    37   ar
    33    37    38   ar
    34     4    18    1
    35    18    19    1
    36    19    20    1
    37    19    21    1
    38    19    22    1
    39    10    11   ar
    40    11    12   ar
    41    12    13   ar
    42    13     5   ar
    43    12     7   ar
    44    45    40   ar
    45    38    34   ar
    46    25    26    1
    47    28    31    1
    48    22    23    1
@<TRIPOS>MOLECULE
*****
 45 48 0 0 0
SMALL
GASTEIGER

@<TRIPOS>ATOM
      1 C          62.8025   86.1518   13.6620 C.3     1  UNL1        0.1246
      2 C          63.4989   88.4676   12.7123 C.2     1  UNL1        0.2493
      3 O          62.8131   88.1432   11.4183 O.2     1  UNL1       -0.2699
      4 N          63.4936   87.4719   13.8341 N.am    1  UNL1       -0.2711
      5 C          65.9684   94.2661   11.6941 C.ar    1  UNL1        0.2924
      6 N          66.1874   93.7899   13.0996 N.ar    1  UNL1       -0.1946
      7 C          65.5723   92.4280   13.2288 C.ar    1  UNL1        0.1202
      8 C          65.4804   91.4735   14.3822 C.ar    1  UNL1        0.0225
      9 C          64.7893   90.1534   14.2100 C.ar    1  UNL1        0.0063
     10 C          64.1901   89.7878   12.8844 C.ar    1  UNL1        0.0567
     11 C          64.2820   90.7423   11.7310 C.ar    1  UNL1        0.0437
     12 C          64.9731   92.0623   11.9031 C.ar    1  UNL1        0.1662
     13 O          65.2179   93.1984   10.9547 O.2     1  UNL1       -0.4237
     14 N          66.4204   95.5793   11.1276 N.pl3   1  UNL1       -0.2619
     15 C          66.1092   96.8555   11.8517 C.3     1  UNL1        0.1166
     16 C          67.7905   94.3592    9.2880 C.3     1  UNL1        0.0233
     17 C          67.1837   95.6164    9.8368 C.3     1  UNL1        0.0952
     18 C          64.1794   87.7963   15.1281 C.3     1  UNL1        0.1205
     19 C          63.4975   87.5048   16.4320 C.3     1  UNL1        0.1067
     20 C          63.0825   88.9425   16.5363 C.3     1  UNL1        0.0311
     21 C          63.9126   86.0672   16.3276 C.3     1  UNL1        0.0311
     22 O          62.8157   87.2133   17.7359 O.3     1  UNL1       -0.3851
     23 H          62.4156   88.0269   18.0806 H       1  UNL1        0.2103
     24 C          63.4600   85.0582   12.8736 C.3     1  UNL1        0.1484
     25 O          64.7661   84.4823   13.3346 O.3     1  UNL1       -0.3810
     26 H          65.0508   83.7910   12.7166 H       1  UNL1        0.2105
     27 C          62.8114   84.5404   11.6241 C.3     1  UNL1        0.1075
     28 N          61.9147   85.4335   10.8190 N.am    1  UNL1       -0.2695
     29 C          62.1941   85.6613    9.3630 C.2     1  UNL1        0.4020
     30 O          63.3702   84.9958    8.7121 O.2     1  UNL1       -0.2264
     31 H          61.1427   85.8703   11.2463 H       1  UNL1        0.1528
     32 O          61.2973   86.5544    8.5580 O.3     1  UNL1       -0.4291
     33 C          59.9936   87.0232    9.1329 C.3     1  UNL1        0.2447
     34 C          59.9535   88.2443   10.0030 C.ar    1  UNL1        0.0714
     35 C          59.6189   88.2747   11.4649 C.ar    1  UNL1        0.1053
     36 N          59.6995   89.6986   11.9295 N.ar    1  UNL1       -0.2350
     37 C          60.0839   90.5484   10.7547 C.ar    1  UNL1        0.1343
     38 S          60.2409   89.6497    9.5640 S.2     1  UNL1       -0.0652
     39 C          63.0596   83.1293   11.1796 C.3     1  UNL1        0.0485
     40 C          62.6802   81.9844   12.0713 C.ar    1  UNL1       -0.0204
     41 C          62.9658   80.5750   11.6447 C.ar    1  UNL1       -0.0042
     42 C          62.5864   79.4300   12.5364 C.ar    1  UNL1       -0.0003
     43 C          61.9213   79.6945   13.8546 C.ar    1  UNL1       -0.0000
     44 C          61.6356   81.1039   14.2811 C.ar    1  UNL1       -0.0003
     45 C          62.0150   82.2489   13.3895 C.ar    1  UNL1       -0.0042
@<TRIPOS>BOND
     1    16    17    1
     2    17    14    1
     3    14    15    1
     4    14     5    1
     5     5     6   ar
     6     6     7   ar
     7     7     8   ar
     8     8     9   ar
     9     9    10   ar
    10    10     2    1
    11     2     3    2
    12     2     4   am
    13     4     1    1
    14     1    24    1
    15    24    25    1
    16    24    27    1
    17    27    39    1
    18    39    40    1
    19    40    41   ar
    20    41    42   ar
    21    42    43   ar
    22    43    44   ar
    23    44    45   ar
    24    27    28    1
    25    28    29   am
    26    29    30    2
    27    29    32    1
    28    32    33    1
    29    33    34    1
    30    34    35   ar
    31    35    36   ar
    32    36    37   ar
    33    37    38   ar
    34     4    18    1
    35    18    19    1
    36    19    20    1
    37    19    21    1
    38    19    22    1
    39    10    11   ar
    40    11    12   ar
    41    12    13   ar
    42    13     5   ar
    43    12     7   ar
    44    45    40   ar
    45    38    34   ar
    46    25    26    1
    47    28    31    1
    48    22    23    1
@<TRIPOS>MOLECULE
*****
 45 48 0 0 0
SMALL
GASTEIGER

@<TRIPOS>ATOM
      1 C          63.4639   91.3106   12.5328 C.3     1  UNL1        0.1246
      2 C          63.9602   89.2438   14.0269 C.2     1  UNL1        0.2493
      3 O          64.6523   90.1286   15.0209 O.2     1  UNL1       -0.2699
      4 N          63.3660   89.8348   12.7828 N.am    1  UNL1       -0.2711
      5 C          63.2985   82.9375   13.2855 C.ar    1  UNL1        0.2924
      6 N          63.5255   83.3244   14.7168 N.ar    1  UNL1       -0.1946
      7 C          63.6666   84.8165   14.7770 C.ar    1  UNL1        0.1202
      8 C          63.9043   85.7569   15.9211 C.ar    1  UNL1        0.0225
      9 C          64.0022   87.2326   15.6711 C.ar    1  UNL1        0.0063
     10 C          63.8623   87.7680   14.2769 C.ar    1  UNL1        0.0567
     11 C          63.6246   86.8276   13.1327 C.ar    1  UNL1        0.0437
     12 C          63.5267   85.3519   13.3828 C.ar    1  UNL1        0.1662
     13 O          63.2992   84.1906   12.4610 O.2     1  UNL1       -0.4237
     14 N          63.1047   81.5425   12.7692 N.pl3   1  UNL1       -0.2619
     15 C          62.2486   80.5736   13.5296 C.3     1  UNL1        0.1166
     16 C          62.9330   80.7463   10.3022 C.3     1  UNL1        0.0233
     17 C          63.7671   81.1165   11.4927 C.3     1  UNL1        0.0952
     18 C          62.6739   88.9500   11.7888 C.3     1  UNL1        0.1205
     19 C          61.5860   89.5067   10.9190 C.3     1  UNL1        0.1067
     20 C          62.4014   89.1945    9.6993 C.3     1  UNL1        0.0311
     21 C          60.7706   89.8189   12.1387 C.3     1  UNL1        0.0311
     22 O          60.4980   90.0634   10.0492 O.3     1  UNL1       -0.3851
     23 H          60.7606   89.9931    9.1181 H       1  UNL1        0.2103
     24 C          64.4067   91.8338   11.4901 C.3     1  UNL1        0.1484
     25 O          63.9483   91.9782   10.0692 O.3     1  UNL1       -0.3810
     26 H          64.6746   92.3268    9.5290 H       1  UNL1        0.2105
     27 C          65.8079   92.2124   11.8683 C.3     1  UNL1        0.1075
     28 N          66.4747   93.3800   11.2034 N.am    1  UNL1       -0.2695
     29 C          67.5561   93.1489   10.1899 C.2     1  UNL1        0.4020
     30 O          67.9707   91.7501    9.8414 O.2     1  UNL1       -0.2264
     31 H          66.2026   94.2981   11.4321 H       1  UNL1        0.1528
     32 O          68.2229   94.3165    9.5250 O.3     1  UNL1       -0.4291
     33 C          67.7006   95.7049    9.7475 C.3     1  UNL1        0.2447
     34 C          66.4532   96.1580    9.0485 C.ar    1  UNL1        0.0714
     35 C          66.3128   96.4231    7.5788 C.ar    1  UNL1        0.1053
     36 N          64.9000   96.8544    7.3184 N.ar    1  UNL1       -0.2350
     37 C          64.1671   96.8559    8.6272 C.ar    1  UNL1        0.1343
     38 S          65.1270   96.4255    9.6965 S.2     1  UNL1       -0.0652
     39 C          66.5425   91.4235   12.9114 C.3     1  UNL1        0.0485
     40 C          67.3994   92.1292   13.9202 C.ar    1  UNL1       -0.0204
     41 C          68.8927   92.1113   13.7793 C.ar    1  UNL1       -0.0042
     42 C          69.7497   92.8170   14.7881 C.ar    1  UNL1       -0.0003
     43 C          69.1134   93.5405   15.9377 C.ar    1  UNL1       -0.0000
     44 C          67.6201   93.5583   16.0786 C.ar    1  UNL1       -0.0003
     45 C          66.7631   92.8527   15.0698 C.ar    1  UNL1       -0.0042
@<TRIPOS>BOND
     1    16    17    1
     2    17    14    1
     3    14    15    1
     4    14     5    1
     5     5     6   ar
     6     6     7   ar
     7     7     8   ar
     8     8     9   ar
     9     9    10   ar
    10    10     2    1
    11     2     3    2
    12     2     4   am
    13     4     1    1
    14     1    24    1
    15    24    25    1
    16    24    27    1
    17    27    39    1
    18    39    40    1
    19    40    41   ar
    20    41    42   ar
    21    42    43   ar
    22    43    44   ar
    23    44    45   ar
    24    27    28    1
    25    28    29   am
    26    29    30    2
    27    29    32    1
    28    32    33    1
    29    33    34    1
    30    34    35   ar
    31    35    36   ar
    32    36    37   ar
    33    37    38   ar
    34     4    18    1
    35    18    19    1
    36    19    20    1
    37    19    21    1
    38    19    22    1
    39    10    11   ar
    40    11    12   ar
    41    12    13   ar
    42    13     5   ar
    43    12     7   ar
    44    45    40   ar
    45    38    34   ar
    46    25    26    1
    47    28    31    1
    48    22    23    1
@<TRIPOS>MOLECULE
*****
 45 48 0 0 0
SMALL
GASTEIGER

@<TRIPOS>ATOM
      1 C          62.9133   90.5686   12.3919 C.3     1  UNL1        0.1246
      2 C          63.7628   88.4300   13.5980 C.2     1  UNL1        0.2493
      3 O          64.3771   89.2792   14.6711 O.2     1  UNL1       -0.2699
      4 N          63.0309   89.0747   12.4584 N.am    1  UNL1       -0.2711
      5 C          63.2561   82.1862   12.3671 C.ar    1  UNL1        0.2924
      6 N          64.0602   82.4620   13.6029 N.ar    1  UNL1       -0.1946
      7 C          64.1158   83.9483   13.7976 C.ar    1  UNL1        0.1202
      8 C          64.7679   84.7994   14.8466 C.ar    1  UNL1        0.0225
      9 C          64.6502   86.2933   14.7800 C.ar    1  UNL1        0.0063
     10 C          63.8805   86.9360   13.6645 C.ar    1  UNL1        0.0567
     11 C          63.2283   86.0849   12.6156 C.ar    1  UNL1        0.0437
     12 C          63.3460   84.5911   12.6822 C.ar    1  UNL1        0.1662
     13 O          62.8147   83.5020   11.7980 O.2     1  UNL1       -0.4237
     14 N          62.9475   80.8323   11.7999 N.pl3   1  UNL1       -0.2619
     15 C          62.4614   79.7351   12.6998 C.3     1  UNL1        0.1166
     16 C          62.7635   79.2388    9.7561 C.3     1  UNL1        0.0233
     17 C          63.1250   80.5755   10.3328 C.3     1  UNL1        0.0952
     18 C          62.4167   88.2255   11.3853 C.3     1  UNL1        0.1205
     19 C          61.3644   88.8005   10.4842 C.3     1  UNL1        0.1067
     20 C          62.4318   89.4345    9.6424 C.3     1  UNL1        0.0311
     21 C          60.2971   88.1665   11.3261 C.3     1  UNL1        0.0311
     22 O          60.3121   89.3756    9.5831 O.3     1  UNL1       -0.3851
     23 H          60.7360   89.8861    8.8756 H       1  UNL1        0.2103
     24 C          63.8417   91.4305   13.1950 C.3     1  UNL1        0.1484
     25 O          63.4823   91.8138   14.6000 O.3     1  UNL1       -0.3810
     26 H          64.1850   92.3683   14.9737 H       1  UNL1        0.2105
     27 C          65.1296   91.9093   12.5932 C.3     1  UNL1        0.1075
     28 N          65.1191   93.0197   11.5848 N.am    1  UNL1       -0.2695
     29 C          65.7014   94.3568   11.9355 C.2     1  UNL1        0.4020
     30 O          66.2941   94.5835   13.2946 O.2     1  UNL1       -0.2264
     31 H          64.7301   92.8709   10.6927 H       1  UNL1        0.1528
     32 O          65.6909   95.4672   10.9271 O.3     1  UNL1       -0.4291
     33 C          66.8685   95.6676   10.0199 C.3     1  UNL1        0.2447
     34 C          67.5804   94.4807    9.4418 C.ar    1  UNL1        0.0714
     35 C          67.7887   94.2021    7.9826 C.ar    1  UNL1        0.1053
     36 N          68.5461   92.9131    7.8602 N.ar    1  UNL1       -0.2350
     37 C          68.8059   92.3950    9.2437 C.ar    1  UNL1        0.1343
     38 S          68.2091   93.3638   10.2212 S.2     1  UNL1       -0.0652
     39 C          66.4279   91.2775   12.9997 C.3     1  UNL1        0.0485
     40 C          67.2450   91.8849   14.1013 C.ar    1  UNL1       -0.0204
     41 C          68.6997   92.1778   13.8820 C.ar    1  UNL1       -0.0042
     42 C          69.5169   92.7852   14.9836 C.ar    1  UNL1       -0.0003
     43 C          68.8793   93.0997   16.3044 C.ar    1  UNL1       -0.0000
     44 C          67.4245   92.8068   16.5236 C.ar    1  UNL1       -0.0003
     45 C          66.6074   92.1994   15.4221 C.ar    1  UNL1       -0.0042
@<TRIPOS>BOND
     1    16    17    1
     2    17    14    1
     3    14    15    1
     4    14     5    1
     5     5     6   ar
     6     6     7   ar
     7     7     8   ar
     8     8     9   ar
     9     9    10   ar
    10    10     2    1
    11     2     3    2
    12     2     4   am
    13     4     1    1
    14     1    24    1
    15    24    25    1
    16    24    27    1
    17    27    39    1
    18    39    40    1
    19    40    41   ar
    20    41    42   ar
    21    42    43   ar
    22    43    44   ar
    23    44    45   ar
    24    27    28    1
    25    28    29   am
    26    29    30    2
    27    29    32    1
    28    32    33    1
    29    33    34    1
    30    34    35   ar
    31    35    36   ar
    32    36    37   ar
    33    37    38   ar
    34     4    18    1
    35    18    19    1
    36    19    20    1
    37    19    21    1
    38    19    22    1
    39    10    11   ar
    40    11    12   ar
    41    12    13   ar
    42    13     5   ar
    43    12     7   ar
    44    45    40   ar
    45    38    34   ar
    46    25    26    1
    47    28    31    1
    48    22    23    1
@<TRIPOS>MOLECULE
*****
 45 48 0 0 0
SMALL
GASTEIGER

@<TRIPOS>ATOM
      1 C          62.4498   86.4006   13.2561 C.3     1  UNL1        0.1246
      2 C          63.0579   88.8133   12.5085 C.2     1  UNL1        0.2493
      3 O          61.9447   88.7825   11.5036 O.2     1  UNL1       -0.2699
      4 N          63.3105   87.6224   13.3847 N.am    1  UNL1       -0.2711
      5 C          66.1612   94.2689   11.3406 C.ar    1  UNL1        0.2924
      6 N          66.4108   93.7545   12.7274 N.ar    1  UNL1       -0.1946
      7 C          65.6399   92.4786   12.8943 C.ar    1  UNL1        0.1202
      8 C          65.5053   91.5311   14.0493 C.ar    1  UNL1        0.0225
      9 C          64.6447   90.3094   13.9207 C.ar    1  UNL1        0.0063
     10 C          63.9186   90.0352   12.6371 C.ar    1  UNL1        0.0567
     11 C          64.0533   90.9827   11.4821 C.ar    1  UNL1        0.0437
     12 C          64.9139   92.2044   11.6107 C.ar    1  UNL1        0.1662
     13 O          65.2361   93.3108   10.6505 O.2     1  UNL1       -0.4237
     14 N          66.7359   95.5213   10.7480 N.pl3   1  UNL1       -0.2619
     15 C          66.4101   96.8549   11.3523 C.3     1  UNL1        0.1166
     16 C          67.0666   95.1007    8.2057 C.3     1  UNL1        0.0233
     17 C          67.6363   95.4401    9.5511 C.3     1  UNL1        0.0952
     18 C          64.4237   87.6532   14.3896 C.3     1  UNL1        0.1205
     19 C          64.4062   86.7120   15.5574 C.3     1  UNL1        0.1067
     20 C          63.3305   87.5337   16.2036 C.3     1  UNL1        0.0311
     21 C          65.4819   85.8903   14.9112 C.3     1  UNL1        0.0311
     22 O          64.3887   85.7707   16.7252 O.3     1  UNL1       -0.3851
     23 H          63.7291   86.0688   17.3709 H       1  UNL1        0.2103
     24 C          63.0227   85.1360   12.6883 C.3     1  UNL1        0.1484
     25 O          63.8540   84.2350   13.5526 O.3     1  UNL1       -0.3810
     26 H          64.1440   83.4676   13.0349 H       1  UNL1        0.2105
     27 C          62.7643   84.7725   11.2562 C.3     1  UNL1        0.1075
     28 N          62.5067   83.3435   10.8799 N.am    1  UNL1       -0.2695
     29 C          63.6426   82.4662   10.4442 C.2     1  UNL1        0.4020
     30 O          65.0362   83.0179   10.3848 O.2     1  UNL1       -0.2264
     31 H          61.5920   82.9814   10.9189 H       1  UNL1        0.1528
     32 O          63.3850   81.0372   10.0679 O.3     1  UNL1       -0.4291
     33 C          62.9611   80.0505   11.1151 C.3     1  UNL1        0.2447
     34 C          62.7142   80.5094   12.5217 C.ar    1  UNL1        0.0714
     35 C          63.7610   80.9465   13.5031 C.ar    1  UNL1        0.1053
     36 N          63.0709   81.3190   14.7818 N.ar    1  UNL1       -0.2350
     37 C          61.5976   81.1121   14.5907 C.ar    1  UNL1        0.1343
     38 S          61.3771   80.6117   13.1939 S.2     1  UNL1       -0.0652
     39 C          62.7634   85.8379   10.2003 C.3     1  UNL1        0.0485
     40 C          62.1426   85.5670    8.8620 C.ar    1  UNL1       -0.0204
     41 C          60.7267   85.9832    8.5940 C.ar    1  UNL1       -0.0042
     42 C          60.1058   85.7123    7.2556 C.ar    1  UNL1       -0.0003
     43 C          60.9010   85.0252    6.1852 C.ar    1  UNL1       -0.0000
     44 C          62.3170   84.6090    6.4533 C.ar    1  UNL1       -0.0003
     45 C          62.9378   84.8799    7.7916 C.ar    1  UNL1       -0.0042
@<TRIPOS>BOND
     1    16    17    1
     2    17    14    1
     3    14    15    1
     4    14     5    1
     5     5     6   ar
     6     6     7   ar
     7     7     8   ar
     8     8     9   ar
     9     9    10   ar
    10    10     2    1
    11     2     3    2
    12     2     4   am
    13     4     1    1
    14     1    24    1
    15    24    25    1
    16    24    27    1
    17    27    39    1
    18    39    40    1
    19    40    41   ar
    20    41    42   ar
    21    42    43   ar
    22    43    44   ar
    23    44    45   ar
    24    27    28    1
    25    28    29   am
    26    29    30    2
    27    29    32    1
    28    32    33    1
    29    33    34    1
    30    34    35   ar
    31    35    36   ar
    32    36    37   ar
    33    37    38   ar
    34     4    18    1
    35    18    19    1
    36    19    20    1
    37    19    21    1
    38    19    22    1
    39    10    11   ar
    40    11    12   ar
    41    12    13   ar
    42    13     5   ar
    43    12     7   ar
    44    45    40   ar
    45    38    34   ar
    46    25    26    1
    47    28    31    1
    48    22    23    1
@<TRIPOS>MOLECULE
*****
 45 48 0 0 0
SMALL
GASTEIGER

@<TRIPOS>ATOM
      1 C          63.1713   91.1236   12.1835 C.3     1  UNL1        0.1246
      2 C          63.8647   89.0448   13.5793 C.2     1  UNL1        0.2493
      3 O          64.5865   89.9352   14.5468 O.2     1  UNL1       -0.2699
      4 N          63.1571   89.6389   12.3977 N.am    1  UNL1       -0.2711
      5 C          63.0900   82.7542   12.8145 C.ar    1  UNL1        0.2924
      6 N          63.6844   83.0993   14.1477 N.ar    1  UNL1       -0.1946
      7 C          63.8222   84.5911   14.2217 C.ar    1  UNL1        0.1202
      8 C          64.3456   85.4987   15.2951 C.ar    1  UNL1        0.0225
      9 C          64.3597   86.9833   15.0810 C.ar    1  UNL1        0.0063
     10 C          63.8505   87.5602   13.7934 C.ar    1  UNL1        0.0567
     11 C          63.3271   86.6526   12.7200 C.ar    1  UNL1        0.0437
     12 C          63.3130   85.1681   12.9341 C.ar    1  UNL1        0.1662
     13 O          62.8604   84.0328   12.0645 O.2     1  UNL1       -0.4237
     14 N          62.7796   81.3731   12.3184 N.pl3   1  UNL1       -0.2619
     15 C          63.1187   80.9887   10.9087 C.3     1  UNL1        0.1166
     16 C          60.9457   80.7782   14.0599 C.3     1  UNL1        0.0233
     17 C          62.1301   80.3763   13.2320 C.3     1  UNL1        0.0952
     18 C          62.4352   88.7485   11.4301 C.3     1  UNL1        0.1205
     19 C          61.2012   89.2415   10.7344 C.3     1  UNL1        0.1067
     20 C          60.4457   89.1768   12.0286 C.3     1  UNL1        0.0311
     21 C          61.9567   89.3062    9.4402 C.3     1  UNL1        0.0311
     22 O          59.9671   89.7345   10.0385 O.3     1  UNL1       -0.3851
     23 H          59.2405   89.8013   10.6776 H       1  UNL1        0.2103
     24 C          64.2928   91.7602   11.4176 C.3     1  UNL1        0.1484
     25 O          64.1075   92.1142    9.9718 O.3     1  UNL1       -0.3810
     26 H          64.9224   92.5141    9.6298 H       1  UNL1        0.2105
     27 C          65.5997   92.0427   12.0974 C.3     1  UNL1        0.1075
     28 N          65.7179   91.8971   13.5856 N.am    1  UNL1       -0.2695
     29 C          65.8841   93.1134   14.4474 C.2     1  UNL1        0.4020
     30 O          65.9322   94.4755   13.8209 O.2     1  UNL1       -0.2264
     31 H          65.6863   91.0031   13.9967 H       1  UNL1        0.1528
     32 O          66.0023   92.9678   15.9356 O.3     1  UNL1       -0.4291
     33 C          67.3108   92.5646   16.5482 C.3     1  UNL1        0.2447
     34 C          68.5973   92.8796   15.8440 C.ar    1  UNL1        0.0714
     35 C          69.2237   92.0696   14.7479 C.ar    1  UNL1        0.1053
     36 N          70.4968   92.7493   14.3388 N.ar    1  UNL1       -0.2350
     37 C          70.6572   93.9793   15.1822 C.ar    1  UNL1        0.1343
     38 S          69.4833   94.0599   16.1125 S.2     1  UNL1       -0.0652
     39 C          66.7885   92.4709   11.2889 C.3     1  UNL1        0.0485
     40 C          66.7200   93.7168   10.4565 C.ar    1  UNL1       -0.0204
     41 C          67.5071   93.8123    9.1833 C.ar    1  UNL1       -0.0042
     42 C          67.4386   95.0583    8.3508 C.ar    1  UNL1       -0.0003
     43 C          66.5830   96.2087    8.7916 C.ar    1  UNL1       -0.0000
     44 C          65.7959   96.1132   10.0650 C.ar    1  UNL1       -0.0003
     45 C          65.8644   94.8673   10.8974 C.ar    1  UNL1       -0.0042
@<TRIPOS>BOND
     1    16    17    1
     2    17    14    1
     3    14    15    1
     4    14     5    1
     5     5     6   ar
     6     6     7   ar
     7     7     8   ar
     8     8     9   ar
     9     9    10   ar
    10    10     2    1
    11     2     3    2
    12     2     4   am
    13     4     1    1
    14     1    24    1
    15    24    25    1
    16    24    27    1
    17    27    39    1
    18    39    40    1
    19    40    41   ar
    20    41    42   ar
    21    42    43   ar
    22    43    44   ar
    23    44    45   ar
    24    27    28    1
    25    28    29   am
    26    29    30    2
    27    29    32    1
    28    32    33    1
    29    33    34    1
    30    34    35   ar
    31    35    36   ar
    32    36    37   ar
    33    37    38   ar
    34     4    18    1
    35    18    19    1
    36    19    20    1
    37    19    21    1
    38    19    22    1
    39    10    11   ar
    40    11    12   ar
    41    12    13   ar
    42    13     5   ar
    43    12     7   ar
    44    45    40   ar
    45    38    34   ar
    46    25    26    1
    47    28    31    1
    48    22    23    1
@<TRIPOS>MOLECULE
*****
 45 48 0 0 0
SMALL
GASTEIGER

@<TRIPOS>ATOM
      1 C          63.5156   89.8068   14.0481 C.3     1  UNL1        0.1246
      2 C          63.4856   87.4054   13.0569 C.2     1  UNL1        0.2493
      3 O          63.0290   87.9554   11.7382 O.2     1  UNL1       -0.2699
      4 N          63.7289   88.3310   14.2118 N.am    1  UNL1       -0.2711
      5 C          62.9064   81.0575   12.7028 C.ar    1  UNL1        0.2924
      6 N          64.0836   81.4790   13.5313 N.ar    1  UNL1       -0.1946
      7 C          64.1257   82.9783   13.5480 C.ar    1  UNL1        0.1202
      8 C          65.0636   83.9488   14.2025 C.ar    1  UNL1        0.0225
      9 C          64.8502   85.4245   14.0388 C.ar    1  UNL1        0.0063
     10 C          63.6990   85.9296   13.2206 C.ar    1  UNL1        0.0567
     11 C          62.7611   84.9591   12.5661 C.ar    1  UNL1        0.0437
     12 C          62.9745   83.4834   12.7298 C.ar    1  UNL1        0.1662
     13 O          62.2209   82.2963   12.2074 O.2     1  UNL1       -0.4237
     14 N          62.4881   79.6451   12.4194 N.pl3   1  UNL1       -0.2619
     15 C          61.7599   78.8544   13.4655 C.3     1  UNL1        0.1166
     16 C          62.7623   79.8590    9.8448 C.3     1  UNL1        0.0233
     17 C          62.7981   79.0235   11.0900 C.3     1  UNL1        0.0952
     18 C          64.1855   87.7810   15.5305 C.3     1  UNL1        0.1205
     19 C          63.2027   87.6024   16.6495 C.3     1  UNL1        0.1067
     20 C          63.0244   89.0895   16.7303 C.3     1  UNL1        0.0311
     21 C          63.3810   86.1152   16.5687 C.3     1  UNL1        0.0311
     22 O          62.2199   87.4237   17.7685 O.3     1  UNL1       -0.3851
     23 H          61.8993   88.2919   18.0590 H       1  UNL1        0.2103
     24 C          64.6481   90.6834   13.6023 C.3     1  UNL1        0.1484
     25 O          65.8700   90.8247   14.4607 O.3     1  UNL1       -0.3810
     26 H          66.5006   91.4225   14.0296 H       1  UNL1        0.2105
     27 C          64.5587   91.4187   12.2979 C.3     1  UNL1        0.1075
     28 N          64.0232   90.7245   11.0808 N.am    1  UNL1       -0.2695
     29 C          62.5437   90.6650   10.8414 C.2     1  UNL1        0.4020
     30 O          61.5996   91.2996   11.8191 O.2     1  UNL1       -0.2264
     31 H          64.6429   90.3080   10.4391 H       1  UNL1        0.1528
     32 O          62.0082   89.9708    9.6242 O.3     1  UNL1       -0.4291
     33 C          60.5875   89.4904    9.5989 C.3     1  UNL1        0.2447
     34 C          60.2269   88.2556    8.8274 C.ar    1  UNL1        0.0714
     35 C          59.1105   88.1317    7.8333 C.ar    1  UNL1        0.1053
     36 N          59.1131   86.7274    7.3060 N.ar    1  UNL1       -0.2350
     37 C          60.2311   85.9834    7.9742 C.ar    1  UNL1        0.1343
     38 S          60.9196   86.9279    8.9145 S.2     1  UNL1       -0.0652
     39 C          65.0048   92.8482   12.2107 C.3     1  UNL1        0.0485
     40 C          65.9905   93.2635   11.1591 C.ar    1  UNL1       -0.0204
     41 C          67.0931   92.3305   10.7546 C.ar    1  UNL1       -0.0042
     42 C          68.0789   92.7458    9.7030 C.ar    1  UNL1       -0.0003
     43 C          67.9620   94.0940    9.0559 C.ar    1  UNL1       -0.0000
     44 C          66.8592   95.0269    9.4605 C.ar    1  UNL1       -0.0003
     45 C          65.8735   94.6117   10.5121 C.ar    1  UNL1       -0.0042
@<TRIPOS>BOND
     1    16    17    1
     2    17    14    1
     3    14    15    1
     4    14     5    1
     5     5     6   ar
     6     6     7   ar
     7     7     8   ar
     8     8     9   ar
     9     9    10   ar
    10    10     2    1
    11     2     3    2
    12     2     4   am
    13     4     1    1
    14     1    24    1
    15    24    25    1
    16    24    27    1
    17    27    39    1
    18    39    40    1
    19    40    41   ar
    20    41    42   ar
    21    42    43   ar
    22    43    44   ar
    23    44    45   ar
    24    27    28    1
    25    28    29   am
    26    29    30    2
    27    29    32    1
    28    32    33    1
    29    33    34    1
    30    34    35   ar
    31    35    36   ar
    32    36    37   ar
    33    37    38   ar
    34     4    18    1
    35    18    19    1
    36    19    20    1
    37    19    21    1
    38    19    22    1
    39    10    11   ar
    40    11    12   ar
    41    12    13   ar
    42    13     5   ar
    43    12     7   ar
    44    45    40   ar
    45    38    34   ar
    46    25    26    1
    47    28    31    1
    48    22    23    1
@<TRIPOS>MOLECULE
*****
 45 48 0 0 0
SMALL
GASTEIGER

@<TRIPOS>ATOM
      1 C          62.8239   85.8989   14.0649 C.3     1  UNL1        0.1246
      2 C          63.4853   88.1608   12.9711 C.2     1  UNL1        0.2493
      3 O          62.8319   87.7327   11.6905 O.2     1  UNL1       -0.2699
      4 N          63.4813   87.2440   14.1582 N.am    1  UNL1       -0.2711
      5 C          65.7433   93.9799   11.6304 C.ar    1  UNL1        0.2924
      6 N          66.0269   93.5682   13.0447 N.ar    1  UNL1       -0.1946
      7 C          65.4575   92.1959   13.2511 C.ar    1  UNL1        0.1202
      8 C          65.4356   91.2874   14.4445 C.ar    1  UNL1        0.0225
      9 C          64.7782   89.9424   14.3511 C.ar    1  UNL1        0.0063
     10 C          64.1427   89.5059   13.0644 C.ar    1  UNL1        0.0567
     11 C          64.1646   90.4144   11.8710 C.ar    1  UNL1        0.0437
     12 C          64.8220   91.7594   11.9644 C.ar    1  UNL1        0.1662
     13 O          64.9987   92.8620   10.9628 O.2     1  UNL1       -0.4237
     14 N          66.1355   95.2810   10.9954 N.pl3   1  UNL1       -0.2619
     15 C          66.0566   96.5544   11.7840 C.3     1  UNL1        0.1166
     16 C          67.8392   94.5514    9.1746 C.3     1  UNL1        0.0233
     17 C          66.6067   95.3086    9.5716 C.3     1  UNL1        0.0952
     18 C          64.1347   87.6722   15.4387 C.3     1  UNL1        0.1205
     19 C          63.4130   87.5016   16.7426 C.3     1  UNL1        0.1067
     20 C          63.7863   86.0489   16.7591 C.3     1  UNL1        0.0311
     21 C          63.0398   88.9543   16.7260 C.3     1  UNL1        0.0311
     22 O          62.6913   87.3311   18.0465 O.3     1  UNL1       -0.3851
     23 H          62.7633   86.4086   18.3376 H       1  UNL1        0.2103
     24 C          63.5832   84.7298   13.5113 C.3     1  UNL1        0.1484
     25 O          65.0417   84.5676   13.8221 O.3     1  UNL1       -0.3810
     26 H          65.3772   83.7667   13.3899 H       1  UNL1        0.2105
     27 C          62.8841   83.7229   12.6468 C.3     1  UNL1        0.1075
     28 N          62.5601   84.0551   11.2204 N.am    1  UNL1       -0.2695
     29 C          63.6315   83.9883   10.1728 C.2     1  UNL1        0.4020
     30 O          65.0269   83.5892   10.5516 O.2     1  UNL1       -0.2264
     31 H          61.6442   84.3171   10.9718 H       1  UNL1        0.1528
     32 O          63.3075   84.3206    8.7464 O.3     1  UNL1       -0.4291
     33 C          62.9594   85.7288    8.3648 C.3     1  UNL1        0.2447
     34 C          61.5221   86.1337    8.2222 C.ar    1  UNL1        0.0714
     35 C          60.5411   85.5707    7.2370 C.ar    1  UNL1        0.1053
     36 N          59.2262   86.2618    7.4456 N.ar    1  UNL1       -0.2350
     37 C          59.3946   87.2518    8.5598 C.ar    1  UNL1        0.1343
     38 S          60.8135   87.1727    9.0398 S.2     1  UNL1       -0.0652
     39 C          62.5089   82.3836   13.2088 C.3     1  UNL1        0.0485
     40 C          62.6007   81.1574   12.3498 C.ar    1  UNL1       -0.0204
     41 C          62.3829   79.8014   12.9527 C.ar    1  UNL1       -0.0042
     42 C          62.4747   78.5751   12.0937 C.ar    1  UNL1       -0.0003
     43 C          62.7842   78.7050   10.6317 C.ar    1  UNL1       -0.0000
     44 C          63.0019   80.0611   10.0288 C.ar    1  UNL1       -0.0003
     45 C          62.9101   81.2873   10.8878 C.ar    1  UNL1       -0.0042
@<TRIPOS>BOND
     1    16    17    1
     2    17    14    1
     3    14    15    1
     4    14     5    1
     5     5     6   ar
     6     6     7   ar
     7     7     8   ar
     8     8     9   ar
     9     9    10   ar
    10    10     2    1
    11     2     3    2
    12     2     4   am
    13     4     1    1
    14     1    24    1
    15    24    25    1
    16    24    27    1
    17    27    39    1
    18    39    40    1
    19    40    41   ar
    20    41    42   ar
    21    42    43   ar
    22    43    44   ar
    23    44    45   ar
    24    27    28    1
    25    28    29   am
    26    29    30    2
    27    29    32    1
    28    32    33    1
    29    33    34    1
    30    34    35   ar
    31    35    36   ar
    32    36    37   ar
    33    37    38   ar
    34     4    18    1
    35    18    19    1
    36    19    20    1
    37    19    21    1
    38    19    22    1
    39    10    11   ar
    40    11    12   ar
    41    12    13   ar
    42    13     5   ar
    43    12     7   ar
    44    45    40   ar
    45    38    34   ar
    46    25    26    1
    47    28    31    1
    48    22    23    1
