@<TRIPOS>MOLECULE
*****
 24 26 0 0 0
SMALL
GASTEIGER

@<TRIPOS>ATOM
      1 C          63.8767   88.5617   13.4377 C.3     1  UNL1        0.0061
      2 C          64.2959   89.6033   14.4323 C.3     1  UNL1        0.0373
      3 C          64.5754   90.2616   15.7508 C.3     1  UNL1        0.0075
      4 C          65.1116   91.6619   15.7912 C.3     1  UNL1        0.0219
      5 C          65.3682   92.4039   14.5131 C.3     1  UNL1        0.0950
      6 N          65.0887   91.7457   13.1946 N.am    1  UNL1       -0.2637
      7 C          65.3453   92.4877   11.9165 C.2     1  UNL1        0.3077
      8 O          65.0657   91.8293   10.5980 O.2     1  UNL1       -0.2522
      9 N          65.8814   93.8880   11.9569 N.am    1  UNL1       -0.2681
     10 C          64.5525   90.3454   13.1542 C.3     1  UNL1        0.0989
     11 H          66.0649   94.3201   12.8223 H       1  UNL1        0.1564
     12 C          66.1380   94.6299   10.6788 C.ar    1  UNL1        0.0516
     13 C          65.3820   95.8903   10.3785 C.ar    1  UNL1        0.0156
     14 C          65.6385   96.6323    9.1004 C.ar    1  UNL1        0.0127
     15 C          66.6510   96.1140    8.1225 C.ar    1  UNL1        0.0578
     16 CL         66.9076   96.8560    6.8443 Cl      1  UNL1       -0.0822
     17 C          67.4070   94.8537    8.4227 C.ar    1  UNL1        0.0127
     18 C          67.1505   94.1117    9.7009 C.ar    1  UNL1        0.0156
     19 C          63.8937   88.4995   15.3650 C.ar    1  UNL1       -0.0212
     20 C          64.2524   87.0788   15.0445 C.ar    1  UNL1       -0.0042
     21 C          63.8502   85.9750   15.9772 C.ar    1  UNL1       -0.0003
     22 C          63.0892   86.2920   17.2304 C.ar    1  UNL1       -0.0000
     23 C          62.7305   87.7128   17.5509 C.ar    1  UNL1       -0.0003
     24 C          63.1327   88.8165   16.6182 C.ar    1  UNL1       -0.0042
@<TRIPOS>BOND
     1     1     2    1
     2     2    19    1
     3    19    20   ar
     4    20    21   ar
     5    21    22   ar
     6    22    23   ar
     7    23    24   ar
     8     2     3    1
     9     3     4    1
    10     4     5    1
    11     5     6    1
    12     6     7   am
    13     7     8    2
    14     7     9   am
    15     9    12    1
    16    12    13   ar
    17    13    14   ar
    18    14    15   ar
    19    15    16    1
    20    15    17   ar
    21    17    18   ar
    22     6    10    1
    23    10     2    1
    24    24    19   ar
    25    18    12   ar
    26     9    11    1
@<TRIPOS>MOLECULE
*****
 24 26 0 0 0
SMALL
GASTEIGER

@<TRIPOS>ATOM
      1 C          61.7025   89.9838    9.3089 C.3     1  UNL1        0.0061
      2 C          61.9282   88.8491   10.2636 C.3     1  UNL1        0.0373
      3 C          61.8153   87.4914   10.8912 C.3     1  UNL1        0.0075
      4 C          62.5990   87.1698   12.1291 C.3     1  UNL1        0.0219
      5 C          63.4956   88.2060   12.7394 C.3     1  UNL1        0.0950
      6 N          63.6086   89.5637   12.1118 N.am    1  UNL1       -0.2637
      7 C          64.5052   90.5998   12.7221 C.2     1  UNL1        0.3077
      8 O          64.6181   91.9575   12.0944 O.2     1  UNL1       -0.2522
      9 N          65.2889   90.2783   13.9600 N.am    1  UNL1       -0.2681
     10 C          62.8249   89.8852   10.8739 C.3     1  UNL1        0.0989
     11 H          65.2148   89.3872   14.3719 H       1  UNL1        0.1564
     12 C          66.1855   91.3144   14.5702 C.ar    1  UNL1        0.0516
     13 C          65.7239   92.0964   15.7642 C.ar    1  UNL1        0.0156
     14 C          66.6204   93.1326   16.3744 C.ar    1  UNL1        0.0127
     15 C          67.9786   93.3869   15.7908 C.ar    1  UNL1        0.0578
     16 CL         68.8752   94.4231   16.4011 Cl      1  UNL1       -0.0822
     17 C          68.4403   92.6049   14.5969 C.ar    1  UNL1        0.0127
     18 C          67.5437   91.5687   13.9866 C.ar    1  UNL1        0.0156
     19 C          60.9531   88.2070    9.3217 C.ar    1  UNL1       -0.0212
     20 C          60.9654   86.7196    9.1285 C.ar    1  UNL1       -0.0042
     21 C          59.9903   86.0776    8.1867 C.ar    1  UNL1       -0.0003
     22 C          59.0031   86.9231    7.4380 C.ar    1  UNL1       -0.0000
     23 C          58.9909   88.4105    7.6312 C.ar    1  UNL1       -0.0003
     24 C          59.9659   89.0525    8.5730 C.ar    1  UNL1       -0.0042
@<TRIPOS>BOND
     1     1     2    1
     2     2    19    1
     3    19    20   ar
     4    20    21   ar
     5    21    22   ar
     6    22    23   ar
     7    23    24   ar
     8     2     3    1
     9     3     4    1
    10     4     5    1
    11     5     6    1
    12     6     7   am
    13     7     8    2
    14     7     9   am
    15     9    12    1
    16    12    13   ar
    17    13    14   ar
    18    14    15   ar
    19    15    16    1
    20    15    17   ar
    21    17    18   ar
    22     6    10    1
    23    10     2    1
    24    24    19   ar
    25    18    12   ar
    26     9    11    1
@<TRIPOS>MOLECULE
*****
 24 26 0 0 0
SMALL
GASTEIGER

@<TRIPOS>ATOM
      1 C          65.1964   92.7252   10.3793 C.3     1  UNL1        0.0061
      2 C          65.7537   93.1321   11.7111 C.3     1  UNL1        0.0373
      3 C          66.4591   93.9468   12.7545 C.3     1  UNL1        0.0075
      4 C          66.5444   93.4462   14.1659 C.3     1  UNL1        0.0219
      5 C          65.9242   92.1309   14.5339 C.3     1  UNL1        0.0950
      6 N          65.2188   91.3162   13.4906 N.am    1  UNL1       -0.2637
      7 C          64.5986   90.0009   13.8586 C.2     1  UNL1        0.3077
      8 O          63.8932   89.1863   12.8152 O.2     1  UNL1       -0.2522
      9 N          64.6839   89.5004   15.2700 N.am    1  UNL1       -0.2681
     10 C          65.1335   91.8168   12.0792 C.3     1  UNL1        0.0989
     11 H          65.1469   90.0350   15.9549 H       1  UNL1        0.1564
     12 C          64.0637   88.1851   15.6380 C.ar    1  UNL1        0.0516
     13 C          63.0742   88.1111   16.7630 C.ar    1  UNL1        0.0156
     14 C          62.4540   86.7959   17.1310 C.ar    1  UNL1        0.0127
     15 C          62.8232   85.5546   16.3740 C.ar    1  UNL1        0.0578
     16 CL         62.2029   84.2393   16.7420 Cl      1  UNL1       -0.0822
     17 C          63.8126   85.6286   15.2491 C.ar    1  UNL1        0.0127
     18 C          64.4329   86.9439   14.8811 C.ar    1  UNL1        0.0156
     19 C          66.1803   94.3061   10.8805 C.ar    1  UNL1       -0.0212
     20 C          67.1013   94.1043    9.7139 C.ar    1  UNL1       -0.0042
     21 C          67.5278   95.2782    8.8833 C.ar    1  UNL1       -0.0003
     22 C          67.0335   96.6540    9.2194 C.ar    1  UNL1       -0.0000
     23 C          66.1126   96.8558   10.3860 C.ar    1  UNL1       -0.0003
     24 C          65.6860   95.6818   11.2166 C.ar    1  UNL1       -0.0042
@<TRIPOS>BOND
     1     1     2    1
     2     2    19    1
     3    19    20   ar
     4    20    21   ar
     5    21    22   ar
     6    22    23   ar
     7    23    24   ar
     8     2     3    1
     9     3     4    1
    10     4     5    1
    11     5     6    1
    12     6     7   am
    13     7     8    2
    14     7     9   am
    15     9    12    1
    16    12    13   ar
    17    13    14   ar
    18    14    15   ar
    19    15    16    1
    20    15    17   ar
    21    17    18   ar
    22     6    10    1
    23    10     2    1
    24    24    19   ar
    25    18    12   ar
    26     9    11    1
@<TRIPOS>MOLECULE
*****
 24 26 0 0 0
SMALL
GASTEIGER

@<TRIPOS>ATOM
      1 C          66.6715   92.2768   12.7043 C.3     1  UNL1        0.0061
      2 C          65.8396   91.7186   13.8208 C.3     1  UNL1        0.0373
      3 C          65.3742   91.4081   15.2125 C.3     1  UNL1        0.0075
      4 C          64.1425   90.5785   15.4238 C.3     1  UNL1        0.0219
      5 C          63.3762   90.0595   14.2434 C.3     1  UNL1        0.0950
      6 N          63.8415   90.3701   12.8517 N.am    1  UNL1       -0.2637
      7 C          63.0752   89.8511   11.6712 C.2     1  UNL1        0.3077
      8 O          63.5407   90.1617   10.2795 O.2     1  UNL1       -0.2522
      9 N          61.8435   89.0215   11.8825 N.am    1  UNL1       -0.2681
     10 C          65.0733   91.1996   12.6403 C.3     1  UNL1        0.0989
     11 H          61.5380   88.8176   12.7960 H       1  UNL1        0.1564
     12 C          61.0772   88.5025   10.7021 C.ar    1  UNL1        0.0516
     13 C          60.3710   89.4588    9.7872 C.ar    1  UNL1        0.0156
     14 C          59.6048   88.9399    8.6068 C.ar    1  UNL1        0.0127
     15 C          59.5447   87.4648    8.3411 C.ar    1  UNL1        0.0578
     16 CL         58.7784   86.9459    7.1606 Cl      1  UNL1       -0.0822
     17 C          60.2508   86.5086    9.2560 C.ar    1  UNL1        0.0127
     18 C          61.0171   87.0275   10.4365 C.ar    1  UNL1        0.0156
     19 C          66.8949   92.4315   14.6134 C.ar    1  UNL1       -0.0212
     20 C          67.0207   93.9235   14.5234 C.ar    1  UNL1       -0.0042
     21 C          68.0760   94.6363   15.3161 C.ar    1  UNL1       -0.0003
     22 C          69.0054   93.8571   16.1988 C.ar    1  UNL1       -0.0000
     23 C          68.8795   92.3651   16.2888 C.ar    1  UNL1       -0.0003
     24 C          67.8243   91.6524   15.4961 C.ar    1  UNL1       -0.0042
@<TRIPOS>BOND
     1     1     2    1
     2     2    19    1
     3    19    20   ar
     4    20    21   ar
     5    21    22   ar
     6    22    23   ar
     7    23    24   ar
     8     2     3    1
     9     3     4    1
    10     4     5    1
    11     5     6    1
    12     6     7   am
    13     7     8    2
    14     7     9   am
    15     9    12    1
    16    12    13   ar
    17    13    14   ar
    18    14    15   ar
    19    15    16    1
    20    15    17   ar
    21    17    18   ar
    22     6    10    1
    23    10     2    1
    24    24    19   ar
    25    18    12   ar
    26     9    11    1
@<TRIPOS>MOLECULE
*****
 24 26 0 0 0
SMALL
GASTEIGER

@<TRIPOS>ATOM
      1 C          64.0308   82.5215   13.4967 C.3     1  UNL1        0.0061
      2 C          63.3115   83.2849   12.4244 C.3     1  UNL1        0.0373
      3 C          62.5249   83.5621   11.1777 C.3     1  UNL1        0.0075
      4 C          62.1819   84.9742   10.8057 C.3     1  UNL1        0.0219
      5 C          62.6256   86.1091   11.6804 C.3     1  UNL1        0.0950
      6 N          63.4122   85.8319   12.9271 N.am    1  UNL1       -0.2637
      7 C          63.8559   86.9668   13.8019 C.2     1  UNL1        0.3077
      8 O          64.6426   86.6895   15.0486 O.2     1  UNL1       -0.2522
      9 N          63.5130   88.3789   13.4299 N.am    1  UNL1       -0.2681
     10 C          63.7552   84.4198   13.2991 C.3     1  UNL1        0.0989
     11 H          62.9967   88.5609   12.6116 H       1  UNL1        0.1564
     12 C          63.9567   89.5137   14.3047 C.ar    1  UNL1        0.0516
     13 C          63.3025   89.7342   15.6365 C.ar    1  UNL1        0.0156
     14 C          63.7461   90.8689   16.5112 C.ar    1  UNL1        0.0127
     15 C          64.8440   91.7833   16.0544 C.ar    1  UNL1        0.0578
     16 CL         65.2877   92.9182   16.9293 Cl      1  UNL1       -0.0822
     17 C          65.4982   91.5629   14.7227 C.ar    1  UNL1        0.0127
     18 C          65.0545   90.4281   13.8478 C.ar    1  UNL1        0.0156
     19 C          63.1176   81.8849   11.9220 C.ar    1  UNL1       -0.0212
     20 C          63.3374   81.5712   10.4718 C.ar    1  UNL1       -0.0042
     21 C          63.1436   80.1712    9.9695 C.ar    1  UNL1       -0.0003
     22 C          62.7299   79.0848   10.9175 C.ar    1  UNL1       -0.0000
     23 C          62.5101   79.3985   12.3677 C.ar    1  UNL1       -0.0003
     24 C          62.7039   80.7985   12.8700 C.ar    1  UNL1       -0.0042
@<TRIPOS>BOND
     1     1     2    1
     2     2    19    1
     3    19    20   ar
     4    20    21   ar
     5    21    22   ar
     6    22    23   ar
     7    23    24   ar
     8     2     3    1
     9     3     4    1
    10     4     5    1
    11     5     6    1
    12     6     7   am
    13     7     8    2
    14     7     9   am
    15     9    12    1
    16    12    13   ar
    17    13    14   ar
    18    14    15   ar
    19    15    16    1
    20    15    17   ar
    21    17    18   ar
    22     6    10    1
    23    10     2    1
    24    24    19   ar
    25    18    12   ar
    26     9    11    1
@<TRIPOS>MOLECULE
*****
 24 26 0 0 0
SMALL
GASTEIGER

@<TRIPOS>ATOM
      1 C          63.8577   83.6022   14.4876 C.3     1  UNL1        0.0061
      2 C          63.0760   84.1372   13.3245 C.3     1  UNL1        0.0373
      3 C          62.1542   84.1709   12.1417 C.3     1  UNL1        0.0075
      4 C          61.9071   85.4623   11.4200 C.3     1  UNL1        0.0219
      5 C          62.5818   86.7202   11.8811 C.3     1  UNL1        0.0950
      6 N          63.5035   86.6866   13.0639 N.am    1  UNL1       -0.2637
      7 C          64.1782   87.9445   13.5250 C.2     1  UNL1        0.3077
      8 O          65.1000   87.9107   14.7079 O.2     1  UNL1       -0.2522
      9 N          63.9311   89.2359   12.8032 N.am    1  UNL1       -0.2681
     10 C          63.7507   85.3951   13.7857 C.3     1  UNL1        0.0989
     11 H          63.3261   89.2581   12.0269 H       1  UNL1        0.1564
     12 C          64.6058   90.4937   13.2644 C.ar    1  UNL1        0.0516
     13 C          64.9334   90.6800   14.7164 C.ar    1  UNL1        0.0156
     14 C          65.6081   91.9377   15.1776 C.ar    1  UNL1        0.0127
     15 C          65.9552   93.0093   14.1869 C.ar    1  UNL1        0.0578
     16 CL         66.6300   94.2671   14.6482 Cl      1  UNL1       -0.0822
     17 C          65.6277   92.8230   12.7351 C.ar    1  UNL1        0.0127
     18 C          64.9529   91.5652   12.2738 C.ar    1  UNL1        0.0156
     19 C          62.6728   82.6935   13.2674 C.ar    1  UNL1       -0.0212
     20 C          61.7225   82.1392   14.2870 C.ar    1  UNL1       -0.0042
     21 C          61.3194   80.6956   14.2298 C.ar    1  UNL1       -0.0003
     22 C          61.8665   79.8062   13.1529 C.ar    1  UNL1       -0.0000
     23 C          62.8168   80.3605   12.1333 C.ar    1  UNL1       -0.0003
     24 C          63.2199   81.8041   12.1905 C.ar    1  UNL1       -0.0042
@<TRIPOS>BOND
     1     1     2    1
     2     2    19    1
     3    19    20   ar
     4    20    21   ar
     5    21    22   ar
     6    22    23   ar
     7    23    24   ar
     8     2     3    1
     9     3     4    1
    10     4     5    1
    11     5     6    1
    12     6     7   am
    13     7     8    2
    14     7     9   am
    15     9    12    1
    16    12    13   ar
    17    13    14   ar
    18    14    15   ar
    19    15    16    1
    20    15    17   ar
    21    17    18   ar
    22     6    10    1
    23    10     2    1
    24    24    19   ar
    25    18    12   ar
    26     9    11    1
@<TRIPOS>MOLECULE
*****
 24 26 0 0 0
SMALL
GASTEIGER

@<TRIPOS>ATOM
      1 C          59.8461   92.3216    0.1765 C.3     1  UNL1        0.0061
      2 C          60.0120   93.8076    0.2959 C.3     1  UNL1        0.0373
      3 C          60.6216   95.1349    0.6375 C.3     1  UNL1        0.0075
      4 C          59.8962   96.4031    0.2977 C.3     1  UNL1        0.0219
      5 C          58.5611   96.3439   -0.3837 C.3     1  UNL1        0.0950
      6 N          57.9516   95.0167   -0.7253 N.am    1  UNL1       -0.2637
      7 C          56.6166   94.9575   -1.4068 C.2     1  UNL1        0.3077
      8 O          56.0071   93.6302   -1.7484 O.2     1  UNL1       -0.2522
      9 N          55.8912   96.2257   -1.7466 N.am    1  UNL1       -0.2681
     10 C          58.6770   93.7485   -0.3856 C.3     1  UNL1        0.0989
     11 H          56.2912   97.0969   -1.5224 H       1  UNL1        0.1564
     12 C          54.5562   96.1665   -2.4280 C.ar    1  UNL1        0.0516
     13 C          53.3153   95.9089   -1.6254 C.ar    1  UNL1        0.0156
     14 C          51.9804   95.8497   -2.3067 C.ar    1  UNL1        0.0127
     15 C          51.8862   96.0481   -3.7906 C.ar    1  UNL1        0.0578
     16 CL         50.5511   95.9889   -4.4720 Cl      1  UNL1       -0.0822
     17 C          53.1270   96.3057   -4.5931 C.ar    1  UNL1        0.0127
     18 C          54.4620   96.3649   -3.9118 C.ar    1  UNL1        0.0156
     19 C          61.2894   93.3506    0.9359 C.ar    1  UNL1       -0.0212
     20 C          61.2506   92.5903    2.2283 C.ar    1  UNL1       -0.0042
     21 C          62.5279   92.1333    2.8682 C.ar    1  UNL1       -0.0003
     22 C          63.8441   92.4367    2.2157 C.ar    1  UNL1       -0.0000
     23 C          63.8829   93.1970    0.9233 C.ar    1  UNL1       -0.0003
     24 C          62.6055   93.6540    0.2834 C.ar    1  UNL1       -0.0042
@<TRIPOS>BOND
     1     1     2    1
     2     2    19    1
     3    19    20   ar
     4    20    21   ar
     5    21    22   ar
     6    22    23   ar
     7    23    24   ar
     8     2     3    1
     9     3     4    1
    10     4     5    1
    11     5     6    1
    12     6     7   am
    13     7     8    2
    14     7     9   am
    15     9    12    1
    16    12    13   ar
    17    13    14   ar
    18    14    15   ar
    19    15    16    1
    20    15    17   ar
    21    17    18   ar
    22     6    10    1
    23    10     2    1
    24    24    19   ar
    25    18    12   ar
    26     9    11    1
@<TRIPOS>MOLECULE
*****
 24 26 0 0 0
SMALL
GASTEIGER

@<TRIPOS>ATOM
      1 C          64.1443   88.6831   13.3595 C.3     1  UNL1        0.0061
      2 C          63.9367   87.9688   14.6621 C.3     1  UNL1        0.0373
      3 C          63.7990   87.7408   16.1382 C.3     1  UNL1        0.0075
      4 C          63.5321   86.3608   16.6622 C.3     1  UNL1        0.0219
      5 C          63.4031   85.2089   15.7101 C.3     1  UNL1        0.0950
      6 N          63.5409   85.4370   14.2340 N.am    1  UNL1       -0.2637
      7 C          63.4118   84.2851   13.2818 C.2     1  UNL1        0.3077
      8 O          63.5496   84.5133   11.8057 O.2     1  UNL1       -0.2522
      9 N          63.1450   82.9052   13.8058 N.am    1  UNL1       -0.2681
     10 C          63.8077   86.8169   13.7099 C.3     1  UNL1        0.0989
     11 H          63.0546   82.7555   14.7746 H       1  UNL1        0.1564
     12 C          63.0160   81.7534   12.8536 C.ar    1  UNL1        0.0516
     13 C          62.6103   80.4017   13.3622 C.ar    1  UNL1        0.0156
     14 C          62.4813   79.2500   12.4101 C.ar    1  UNL1        0.0127
     15 C          62.7579   79.4497   10.9494 C.ar    1  UNL1        0.0578
     16 CL         62.6288   78.2978    9.9972 Cl      1  UNL1       -0.0822
     17 C          63.1635   80.8013   10.4408 C.ar    1  UNL1        0.0127
     18 C          63.2926   81.9532   11.3930 C.ar    1  UNL1        0.0156
     19 C          64.1379   89.3688   15.1618 C.ar    1  UNL1       -0.0212
     20 C          65.1581   90.2571   14.5138 C.ar    1  UNL1       -0.0042
     21 C          65.3592   91.6570   15.0136 C.ar    1  UNL1       -0.0003
     22 C          64.5401   92.1686   16.1614 C.ar    1  UNL1       -0.0000
     23 C          63.5199   91.2802   16.8094 C.ar    1  UNL1       -0.0003
     24 C          63.3188   89.8804   16.3096 C.ar    1  UNL1       -0.0042
@<TRIPOS>BOND
     1     1     2    1
     2     2    19    1
     3    19    20   ar
     4    20    21   ar
     5    21    22   ar
     6    22    23   ar
     7    23    24   ar
     8     2     3    1
     9     3     4    1
    10     4     5    1
    11     5     6    1
    12     6     7   am
    13     7     8    2
    14     7     9   am
    15     9    12    1
    16    12    13   ar
    17    13    14   ar
    18    14    15   ar
    19    15    16    1
    20    15    17   ar
    21    17    18   ar
    22     6    10    1
    23    10     2    1
    24    24    19   ar
    25    18    12   ar
    26     9    11    1
@<TRIPOS>MOLECULE
*****
 24 26 0 0 0
SMALL
GASTEIGER

@<TRIPOS>ATOM
      1 C          65.9274   90.2305   14.6103 C.3     1  UNL1        0.0061
      2 C          64.9306   90.3666   13.4977 C.3     1  UNL1        0.0373
      3 C          64.1142   90.9909   12.4051 C.3     1  UNL1        0.0075
      4 C          63.1245   90.1620   11.6413 C.3     1  UNL1        0.0219
      5 C          62.9511   88.7088   11.9702 C.3     1  UNL1        0.0950
      6 N          63.7674   88.0845   13.0627 N.am    1  UNL1       -0.2637
      7 C          63.5941   86.6312   13.3915 C.2     1  UNL1        0.3077
      8 O          64.4104   86.0070   14.4842 O.2     1  UNL1       -0.2522
      9 N          62.6043   85.8024   12.6277 N.am    1  UNL1       -0.2681
     10 C          64.7572   88.9133   13.8265 C.3     1  UNL1        0.0989
     11 H          62.0685   86.2121   11.9106 H       1  UNL1        0.1564
     12 C          62.4310   84.3492   12.9566 C.ar    1  UNL1        0.0516
     13 C          62.0350   83.9361   14.3433 C.ar    1  UNL1        0.0156
     14 C          61.8617   82.4830   14.6722 C.ar    1  UNL1        0.0127
     15 C          62.0843   81.4428   13.6146 C.ar    1  UNL1        0.0578
     16 CL         61.9109   79.9896   13.9435 Cl      1  UNL1       -0.0822
     17 C          62.4802   81.8559   12.2280 C.ar    1  UNL1        0.0127
     18 C          62.6536   83.3091   11.8990 C.ar    1  UNL1        0.0156
     19 C          65.4502   91.7726   13.5553 C.ar    1  UNL1       -0.0212
     20 C          65.9514   92.3343   14.8527 C.ar    1  UNL1       -0.0042
     21 C          66.4710   93.7403   14.9102 C.ar    1  UNL1       -0.0003
     22 C          66.4893   94.5844   13.6704 C.ar    1  UNL1       -0.0000
     23 C          65.9881   94.0227   12.3731 C.ar    1  UNL1       -0.0003
     24 C          65.4685   92.6167   12.3155 C.ar    1  UNL1       -0.0042
@<TRIPOS>BOND
     1     1     2    1
     2     2    19    1
     3    19    20   ar
     4    20    21   ar
     5    21    22   ar
     6    22    23   ar
     7    23    24   ar
     8     2     3    1
     9     3     4    1
    10     4     5    1
    11     5     6    1
    12     6     7   am
    13     7     8    2
    14     7     9   am
    15     9    12    1
    16    12    13   ar
    17    13    14   ar
    18    14    15   ar
    19    15    16    1
    20    15    17   ar
    21    17    18   ar
    22     6    10    1
    23    10     2    1
    24    24    19   ar
    25    18    12   ar
    26     9    11    1
