@<TRIPOS>MOLECULE
*****
 36 39 0 0 0
SMALL
GASTEIGER

@<TRIPOS>ATOM
      1 C          63.3457   90.2774   12.9799 C.3     1  UNL1        0.1225
      2 O          62.8978   91.0170   11.7542 O.3     1  UNL1       -0.3559
      3 C          62.4518   90.2567   10.5405 C.3     1  UNL1        0.1441
      4 C          62.4536   88.7568   10.5526 C.3     1  UNL1        0.0589
      5 C          62.9015   88.0172   11.7782 C.3     1  UNL1        0.1466
      6 C          62.9033   86.5172   11.7903 C.ar    1  UNL1        0.0618
      7 C          62.4573   85.7569   10.5766 C.ar    1  UNL1        0.1407
      8 F          61.9607   86.1588    9.2195 F       1  UNL1       -0.2043
      9 C          62.4591   84.2570   10.5886 C.ar    1  UNL1        0.0319
     10 C          62.9070   83.5173   11.8143 C.ar    1  UNL1        0.0351
     11 C          63.3531   84.2776   13.0280 C.ar    1  UNL1        0.1737
     12 F          63.8009   83.5379   14.2537 F       1  UNL1       -0.2010
     13 C          63.3512   85.7776   13.0160 C.ar    1  UNL1        0.1655
     14 O          63.7972   86.5379   14.2296 O.3     1  UNL1       -0.4732
     15 C          63.7954   88.0378   14.2176 C.3     1  UNL1        0.2098
     16 C          63.3475   88.7775   12.9919 C.3     1  UNL1        0.0957
     17 S          62.4555   87.2569   10.5646 S.O2    1  UNL1        0.0094
     18 O          62.8875   87.3282    9.8985 O.2     1  UNL1       -0.1684
     19 O          61.2239   86.5330   11.0220 O.2     1  UNL1       -0.1684
     20 C          62.0094   86.4966    9.3509 C.ar    1  UNL1        0.1059
     21 C          63.0149   85.7615    8.5149 C.ar    1  UNL1        0.0192
     22 C          62.5689   85.0012    7.3013 C.ar    1  UNL1        0.0127
     23 C          61.1174   84.9760    6.9235 C.ar    1  UNL1        0.0578
     24 CL         60.6713   84.2157    5.7099 Cl      1  UNL1       -0.0822
     25 C          60.1120   85.7111    7.7595 C.ar    1  UNL1        0.0127
     26 C          60.5580   86.4714    8.9731 C.ar    1  UNL1        0.0192
     27 C          63.7917   91.0377   14.1936 C.3     1  UNL1        0.0550
     28 C          65.2271   90.9853   14.6258 C.3     1  UNL1        0.1534
     29 S          66.0451   92.2421   14.6646 S.O2    1  UNL1       -0.0085
     30 O          66.6485   91.8903   13.3371 O.2     1  UNL1       -0.1729
     31 O          65.4416   92.5939   15.9920 O.2     1  UNL1       -0.1729
     32 C          66.8630   93.4989   14.7033 C.3     1  UNL1        0.1676
     33 N          69.3130   92.6465   14.5585 N.3     1  UNL1       -0.3197
     34 C          68.2615   93.4672   15.2447 C.3     1  UNL1        0.0908
     35 H          70.1974   92.7408   15.0578 H       1  UNL1        0.1189
     36 H          69.4275   92.9739   13.5993 H       1  UNL1        0.1189
@<TRIPOS>BOND
     1    33    34    1
     2    34    32    1
     3    32    29    1
     4    29    30    2
     5    29    31    2
     6    29    28    1
     7    28    27    1
     8     1    27    1
     9     1     2    1
    10     2     3    1
    11     3     4    1
    12     4     5    1
    13     5    17    1
    14    17    18    2
    15    17    19    2
    16    17    20    1
    17    20    21   ar
    18    21    22   ar
    19    22    23   ar
    20    23    24    1
    21    23    25   ar
    22    25    26   ar
    23     5     6    1
    24     6     7   ar
    25     7     8    1
    26     7     9   ar
    27     9    10   ar
    28    10    11   ar
    29    11    12    1
    30    11    13   ar
    31    13    14    1
    32    14    15    1
    33    16    15    1
    34    16     1    1
    35    16     5    1
    36    26    20   ar
    37    13     6   ar
    38    33    35    1
    39    33    36    1
@<TRIPOS>MOLECULE
*****
 36 39 0 0 0
SMALL
GASTEIGER

@<TRIPOS>ATOM
      1 C          64.1616   90.5796   13.5970 C.3     1  UNL1        0.1225
      2 O          63.6452   91.4330   12.4769 O.3     1  UNL1       -0.3559
      3 C          62.9247   90.8008   11.3231 C.3     1  UNL1        0.1441
      4 C          62.7206   89.3152   11.2895 C.3     1  UNL1        0.0589
      5 C          63.2371   88.4617   12.4097 C.3     1  UNL1        0.1466
      6 C          63.0330   86.9760   12.3761 C.ar    1  UNL1        0.0618
      7 C          62.3125   86.3438   11.2223 C.ar    1  UNL1        0.1407
      8 F          61.6823   86.8761    9.9695 F       1  UNL1       -0.2043
      9 C          62.1085   84.8582   11.1887 C.ar    1  UNL1        0.0319
     10 C          62.6250   84.0046   12.3089 C.ar    1  UNL1        0.0351
     11 C          63.3455   84.6368   13.4627 C.ar    1  UNL1        0.1737
     12 F          63.8619   83.7834   14.5829 F       1  UNL1       -0.2010
     13 C          63.5495   86.1225   13.4963 C.ar    1  UNL1        0.1655
     14 O          64.2700   86.7547   14.6500 O.3     1  UNL1       -0.4732
     15 C          64.4741   88.2404   14.6836 C.3     1  UNL1        0.2098
     16 C          63.9576   89.0939   13.5634 C.3     1  UNL1        0.0957
     17 S          62.5166   87.8295   11.2559 S.O2    1  UNL1        0.0094
     18 O          62.8534   87.8736   10.5347 O.2     1  UNL1       -0.1684
     19 O          61.2738   87.2592   11.8725 O.2     1  UNL1       -0.1684
     20 C          61.7961   87.1974   10.1021 C.ar    1  UNL1        0.1059
     21 C          60.3122   87.3664    9.9610 C.ar    1  UNL1        0.0192
     22 C          59.5917   86.7342    8.8073 C.ar    1  UNL1        0.0127
     23 C          60.3550   85.9330    7.7945 C.ar    1  UNL1        0.0578
     24 CL         59.6345   85.3008    6.6408 Cl      1  UNL1       -0.0822
     25 C          61.8388   85.7640    7.9356 C.ar    1  UNL1        0.0127
     26 C          62.5593   86.3962    9.0894 C.ar    1  UNL1        0.0192
     27 C          64.8821   91.2118   14.7508 C.3     1  UNL1        0.0550
     28 C          66.2339   91.8282   14.5440 C.3     1  UNL1        0.1534
     29 S          66.4109   92.9280   13.5396 S.O2    1  UNL1       -0.0085
     30 O          65.7850   93.9008   14.4945 O.2     1  UNL1       -0.1729
     31 O          67.0368   91.9552   12.5846 O.2     1  UNL1       -0.1729
     32 C          66.5879   94.0279   12.5351 C.3     1  UNL1        0.1676
     33 N          65.1821   93.3513   10.4577 N.3     1  UNL1       -0.3197
     34 C          66.4999   93.7256   11.0686 C.3     1  UNL1        0.0908
     35 H          65.3061   93.1812    9.4596 H       1  UNL1        0.1189
     36 H          64.5163   94.1121   10.5928 H       1  UNL1        0.1189
@<TRIPOS>BOND
     1    33    34    1
     2    34    32    1
     3    32    29    1
     4    29    30    2
     5    29    31    2
     6    29    28    1
     7    28    27    1
     8     1    27    1
     9     1     2    1
    10     2     3    1
    11     3     4    1
    12     4     5    1
    13     5    17    1
    14    17    18    2
    15    17    19    2
    16    17    20    1
    17    20    21   ar
    18    21    22   ar
    19    22    23   ar
    20    23    24    1
    21    23    25   ar
    22    25    26   ar
    23     5     6    1
    24     6     7   ar
    25     7     8    1
    26     7     9   ar
    27     9    10   ar
    28    10    11   ar
    29    11    12    1
    30    11    13   ar
    31    13    14    1
    32    14    15    1
    33    16    15    1
    34    16     1    1
    35    16     5    1
    36    26    20   ar
    37    13     6   ar
    38    33    35    1
    39    33    36    1
@<TRIPOS>MOLECULE
*****
 36 39 0 0 0
SMALL
GASTEIGER

@<TRIPOS>ATOM
      1 C          64.0571   89.7134   13.8452 C.3     1  UNL1        0.1225
      2 O          64.6829   88.8345   14.8873 O.3     1  UNL1       -0.3559
      3 C          64.5890   87.3425   14.7648 C.3     1  UNL1        0.1441
      4 C          63.8694   86.7294   13.6002 C.3     1  UNL1        0.0589
      5 C          63.2437   87.6083   12.5582 C.3     1  UNL1        0.1466
      6 C          62.5240   86.9952   11.3935 C.ar    1  UNL1        0.0618
      7 C          62.4302   85.5031   11.2710 C.ar    1  UNL1        0.1407
      8 F          62.9238   84.3563   12.1023 F       1  UNL1       -0.2043
      9 C          61.7106   84.8900   10.1065 C.ar    1  UNL1        0.0319
     10 C          61.0848   85.7689    9.0644 C.ar    1  UNL1        0.0351
     11 C          61.1786   87.2610    9.1869 C.ar    1  UNL1        0.1737
     12 F          60.5529   88.1399    8.1449 F       1  UNL1       -0.2010
     13 C          61.8983   87.8741   10.3515 C.ar    1  UNL1        0.1655
     14 O          61.9921   89.3661   10.4740 O.3     1  UNL1       -0.4732
     15 C          62.7117   89.9792   11.6386 C.3     1  UNL1        0.2098
     16 C          63.3375   89.1003   12.6807 C.3     1  UNL1        0.0957
     17 S          63.1498   86.1162   12.4357 S.O2    1  UNL1        0.0094
     18 O          63.8278   85.6970   12.4389 O.2     1  UNL1       -0.1684
     19 O          61.6767   85.8521   12.3360 O.2     1  UNL1       -0.1684
     20 C          63.0560   84.6242   12.3131 C.ar    1  UNL1        0.1059
     21 C          63.8200   83.9105   11.2374 C.ar    1  UNL1        0.0192
     22 C          63.7261   82.4184   11.1149 C.ar    1  UNL1        0.0127
     23 C          62.8684   81.6401   12.0681 C.ar    1  UNL1        0.0578
     24 CL         62.7745   80.1481   11.9456 Cl      1  UNL1       -0.0822
     25 C          62.1045   82.3538   13.1437 C.ar    1  UNL1        0.0127
     26 C          62.1983   83.8459   13.2663 C.ar    1  UNL1        0.0192
     27 C          64.1509   91.2055   13.9678 C.3     1  UNL1        0.0550
     28 C          65.2672   91.9448   13.2916 C.3     1  UNL1        0.1534
     29 S          66.2606   92.7151   14.1100 S.O2    1  UNL1       -0.0085
     30 O          65.4689   92.4193   15.3493 O.2     1  UNL1       -0.1729
     31 O          67.0522   93.0110   12.8708 O.2     1  UNL1       -0.1729
     32 C          67.2539   93.4855   14.9285 C.3     1  UNL1        0.1676
     33 N          69.4387   92.2817   14.2022 N.3     1  UNL1       -0.3197
     34 C          68.5755   92.8690   15.2793 C.3     1  UNL1        0.0908
     35 H          70.2933   91.9096   14.6165 H       1  UNL1        0.1189
     36 H          69.6768   93.0060   13.5246 H       1  UNL1        0.1189
@<TRIPOS>BOND
     1    33    34    1
     2    34    32    1
     3    32    29    1
     4    29    30    2
     5    29    31    2
     6    29    28    1
     7    28    27    1
     8     1    27    1
     9     1     2    1
    10     2     3    1
    11     3     4    1
    12     4     5    1
    13     5    17    1
    14    17    18    2
    15    17    19    2
    16    17    20    1
    17    20    21   ar
    18    21    22   ar
    19    22    23   ar
    20    23    24    1
    21    23    25   ar
    22    25    26   ar
    23     5     6    1
    24     6     7   ar
    25     7     8    1
    26     7     9   ar
    27     9    10   ar
    28    10    11   ar
    29    11    12    1
    30    11    13   ar
    31    13    14    1
    32    14    15    1
    33    16    15    1
    34    16     1    1
    35    16     5    1
    36    26    20   ar
    37    13     6   ar
    38    33    35    1
    39    33    36    1
@<TRIPOS>MOLECULE
*****
 36 39 0 0 0
SMALL
GASTEIGER

@<TRIPOS>ATOM
      1 C          59.7976   88.5931    8.0069 C.3     1  UNL1        0.1225
      2 O          59.5230   87.2304    7.4435 O.3     1  UNL1       -0.3559
      3 C          60.1303   86.0176    8.0840 C.3     1  UNL1        0.1441
      4 C          61.0123   86.1676    9.2880 C.3     1  UNL1        0.0589
      5 C          61.2869   87.5303    9.8514 C.3     1  UNL1        0.1466
      6 C          62.1689   87.6803   11.0554 C.ar    1  UNL1        0.0618
      7 C          62.7763   86.4676   11.6960 C.ar    1  UNL1        0.1407
      8 F          62.7179   84.9968   11.4069 F       1  UNL1       -0.2043
      9 C          63.6582   86.6175   12.9000 C.ar    1  UNL1        0.0319
     10 C          63.9329   87.9803   13.4635 C.ar    1  UNL1        0.0351
     11 C          63.3255   89.1931   12.8229 C.ar    1  UNL1        0.1737
     12 F          63.6001   90.5558   13.3864 F       1  UNL1       -0.2010
     13 C          62.4435   89.0431   11.6189 C.ar    1  UNL1        0.1655
     14 O          61.8361   90.2558   10.9784 O.3     1  UNL1       -0.4732
     15 C          60.9542   90.1059    9.7744 C.3     1  UNL1        0.2098
     16 C          60.6795   88.7431    9.2109 C.3     1  UNL1        0.0957
     17 S          61.8943   86.3175   10.4919 S.O2    1  UNL1        0.0094
     18 O          62.4729   85.9363   10.0979 O.2     1  UNL1       -0.1684
     19 O          61.1581   86.1867   11.7923 O.2     1  UNL1       -0.1684
     20 C          62.5016   85.1048   11.1325 C.ar    1  UNL1        0.1059
     21 C          63.6331   84.3874   10.4577 C.ar    1  UNL1        0.0192
     22 C          64.2405   83.1746   11.0982 C.ar    1  UNL1        0.0127
     23 C          63.7164   82.6792   12.4135 C.ar    1  UNL1        0.0578
     24 CL         64.3238   81.4665   13.0541 Cl      1  UNL1       -0.0822
     25 C          62.5850   83.3966   13.0883 C.ar    1  UNL1        0.0127
     26 C          61.9776   84.6094   12.4477 C.ar    1  UNL1        0.0192
     27 C          59.1902   89.8059    7.3664 C.3     1  UNL1        0.0550
     28 C          59.0843   89.8915    5.8726 C.3     1  UNL1        0.1534
     29 S          59.1191   91.2286    5.1937 S.O2    1  UNL1       -0.0085
     30 O          57.6408   91.3734    5.4030 O.2     1  UNL1       -0.1729
     31 O          60.5973   91.0839    4.9844 O.2     1  UNL1       -0.1729
     32 C          59.1538   92.5657    4.5147 C.3     1  UNL1        0.1676
     33 N          59.2599   92.8600    1.9356 N.3     1  UNL1       -0.3197
     34 C          59.9551   92.7492    3.2601 C.3     1  UNL1        0.0908
     35 H          59.9528   92.9799    1.1968 H       1  UNL1        0.1189
     36 H          58.6325   93.6641    1.9471 H       1  UNL1        0.1189
@<TRIPOS>BOND
     1    33    34    1
     2    34    32    1
     3    32    29    1
     4    29    30    2
     5    29    31    2
     6    29    28    1
     7    28    27    1
     8     1    27    1
     9     1     2    1
    10     2     3    1
    11     3     4    1
    12     4     5    1
    13     5    17    1
    14    17    18    2
    15    17    19    2
    16    17    20    1
    17    20    21   ar
    18    21    22   ar
    19    22    23   ar
    20    23    24    1
    21    23    25   ar
    22    25    26   ar
    23     5     6    1
    24     6     7   ar
    25     7     8    1
    26     7     9   ar
    27     9    10   ar
    28    10    11   ar
    29    11    12    1
    30    11    13   ar
    31    13    14    1
    32    14    15    1
    33    16    15    1
    34    16     1    1
    35    16     5    1
    36    26    20   ar
    37    13     6   ar
    38    33    35    1
    39    33    36    1
