@<TRIPOS>MOLECULE
*****
 28 31 0 0 0
SMALL
GASTEIGER

@<TRIPOS>ATOM
      1 C          63.1708   87.7733   12.6350 C.2     1  UNL1        0.3239
      2 N          62.3191   88.1367   11.4550 N.2     1  UNL1       -0.0423
      3 C          61.6436   87.0606   10.6578 C.2     1  UNL1        0.1926
      4 C          61.8199   85.6210   11.0406 C.2     1  UNL1        0.0445
      5 C          62.6716   85.2576   12.2206 C.2     1  UNL1        0.0124
      6 C          63.0274   83.9350   12.8324 C.2     1  UNL1       -0.0101
      7 C          62.5684   82.5899   12.3530 C.3     1  UNL1        0.0320
      8 C          63.9228   84.1938   14.0077 C.2     1  UNL1        0.0509
      9 C          64.5164   83.1528   14.9100 C.3     1  UNL1        0.0513
     10 N          64.1204   85.6763   14.1223 N.2     1  UNL1       -0.2603
     11 C          63.3471   86.3337   13.0178 C.3     1  UNL1        0.2295
     12 C          60.7918   87.4240    9.4778 C.ar    1  UNL1        0.0430
     13 C          60.6002   88.8646    9.1064 C.ar    1  UNL1        0.0037
     14 C          59.7484   89.2280    7.9264 C.ar    1  UNL1        0.0001
     15 C          59.0882   88.1508    7.1178 C.ar    1  UNL1        0.0000
     16 C          59.2798   86.7102    7.4892 C.ar    1  UNL1        0.0001
     17 C          60.1316   86.3468    8.6693 C.ar    1  UNL1        0.0037
     18 N          63.8464   88.8495   13.4322 N.pl3   1  UNL1       -0.2167
     19 H          64.5587   88.6157   14.0704 H       1  UNL1        0.2923
     20 C          63.4367   90.2818   13.2571 C.3     1  UNL1        0.2258
     21 C          65.6274   91.3870   14.9832 C.3     1  UNL1        0.0308
     22 C          65.5029   91.8284   13.5551 C.ar    1  UNL1       -0.0223
     23 C          66.4737   92.8225   12.9900 C.ar    1  UNL1       -0.0045
     24 C          66.3492   93.2640   11.5619 C.ar    1  UNL1       -0.0007
     25 C          65.2539   92.7114   10.6988 C.ar    1  UNL1       -0.0045
     26 C          64.2831   91.7174   11.2638 C.ar    1  UNL1       -0.0223
     27 C          63.1877   91.1648   10.4008 C.3     1  UNL1        0.0308
     28 C          64.4075   91.2758   12.6920 C.ar    1  UNL1        0.0162
@<TRIPOS>BOND
     1    21    22    1
     2    22    23   ar
     3    23    24   ar
     4    24    25   ar
     5    25    26   ar
     6    26    27    1
     7    26    28   ar
     8    28    20    1
     9    20    18    1
    10    18     1    1
    11     1     2    2
    12     2     3    1
    13     3    12    1
    14    12    13   ar
    15    13    14   ar
    16    14    15   ar
    17    15    16   ar
    18    16    17   ar
    19     3     4    2
    20     4     5    1
    21     5     6    2
    22     6     7    1
    23     6     8    1
    24     8     9    1
    25     8    10    2
    26    10    11    1
    27    28    22   ar
    28    11     1    1
    29    17    12   ar
    30    11     5    1
    31    18    19    1
@<TRIPOS>MOLECULE
*****
 28 31 0 0 0
SMALL
GASTEIGER

@<TRIPOS>ATOM
      1 C          63.1719   87.7737   12.6362 C.2     1  UNL1        0.3239
      2 N          62.3197   88.1368   11.4564 N.2     1  UNL1       -0.0423
      3 C          61.6445   87.0603   10.6594 C.2     1  UNL1        0.1926
      4 C          61.8215   85.6208   11.0422 C.2     1  UNL1        0.0445
      5 C          62.6736   85.2578   12.2220 C.2     1  UNL1        0.0124
      6 C          63.0301   83.9354   12.8338 C.2     1  UNL1       -0.0101
      7 C          62.5715   82.5900   12.3546 C.3     1  UNL1        0.0320
      8 C          63.9256   84.1946   14.0089 C.2     1  UNL1        0.0509
      9 C          64.5198   83.1539   14.9111 C.3     1  UNL1        0.0513
     10 N          64.1226   85.6772   14.1234 N.2     1  UNL1       -0.2603
     11 C          63.3488   86.3343   13.0190 C.3     1  UNL1        0.2295
     12 C          60.7923   87.4233    9.4795 C.ar    1  UNL1        0.0430
     13 C          60.6018   88.8637    9.1068 C.ar    1  UNL1        0.0037
     14 C          59.7496   89.2267    7.9270 C.ar    1  UNL1        0.0001
     15 C          59.0879   88.1493    7.1198 C.ar    1  UNL1        0.0000
     16 C          59.2785   86.7089    7.4926 C.ar    1  UNL1        0.0001
     17 C          60.1307   86.3459    8.6725 C.ar    1  UNL1        0.0037
     18 N          63.8471   88.8503   13.4333 N.pl3   1  UNL1       -0.2167
     19 H          64.5595   88.6168   14.0715 H       1  UNL1        0.2923
     20 C          63.4369   90.2824   13.2580 C.3     1  UNL1        0.2258
     21 C          63.1892   91.1660   10.4018 C.3     1  UNL1        0.0308
     22 C          64.2838   91.7187   11.2657 C.ar    1  UNL1       -0.0223
     23 C          65.2547   92.7133   10.7014 C.ar    1  UNL1       -0.0045
     24 C          66.3493   93.2661   11.5652 C.ar    1  UNL1       -0.0007
     25 C          66.4732   92.8242   12.9933 C.ar    1  UNL1       -0.0045
     26 C          65.5024   91.8297   13.5576 C.ar    1  UNL1       -0.0223
     27 C          65.6262   91.3879   14.9857 C.3     1  UNL1        0.0308
     28 C          64.4077   91.2769   12.6937 C.ar    1  UNL1        0.0162
@<TRIPOS>BOND
     1    21    22    1
     2    22    23   ar
     3    23    24   ar
     4    24    25   ar
     5    25    26   ar
     6    26    27    1
     7    26    28   ar
     8    28    20    1
     9    20    18    1
    10    18     1    1
    11     1     2    2
    12     2     3    1
    13     3    12    1
    14    12    13   ar
    15    13    14   ar
    16    14    15   ar
    17    15    16   ar
    18    16    17   ar
    19     3     4    2
    20     4     5    1
    21     5     6    2
    22     6     7    1
    23     6     8    1
    24     8     9    1
    25     8    10    2
    26    10    11    1
    27    28    22   ar
    28    11     1    1
    29    17    12   ar
    30    11     5    1
    31    18    19    1
@<TRIPOS>MOLECULE
*****
 28 31 0 0 0
SMALL
GASTEIGER

@<TRIPOS>ATOM
      1 C          62.1584   88.4969   11.4370 C.2     1  UNL1        0.3239
      2 N          62.6776   87.2846   12.1516 N.2     1  UNL1       -0.0423
      3 C          62.3952   85.9153   11.6081 C.2     1  UNL1        0.1926
      4 C          61.5935   85.7584   10.3501 C.2     1  UNL1        0.0445
      5 C          61.0743   86.9707    9.6355 C.2     1  UNL1        0.0124
      6 C          60.2618   87.1272    8.3844 C.2     1  UNL1       -0.0101
      7 C          59.7575   86.0132    7.5156 C.3     1  UNL1        0.0320
      8 C          60.0420   88.5931    8.1546 C.2     1  UNL1        0.0509
      9 C          59.2793   89.2024    7.0157 C.3     1  UNL1        0.0513
     10 N          60.7187   89.3427    9.2637 N.2     1  UNL1       -0.2603
     11 C          61.3567   88.3399   10.1790 C.3     1  UNL1        0.2295
     12 C          62.9144   84.7029   12.3227 C.ar    1  UNL1        0.0430
     13 C          62.7307   83.3414   11.7206 C.ar    1  UNL1        0.0037
     14 C          63.2499   82.1291   12.4351 C.ar    1  UNL1        0.0001
     15 C          63.9529   82.2782   13.7518 C.ar    1  UNL1        0.0000
     16 C          64.1366   83.6397   14.3539 C.ar    1  UNL1        0.0001
     17 C          63.6174   84.8521   13.6394 C.ar    1  UNL1        0.0037
     18 N          62.4408   89.8662   11.9805 N.pl3   1  UNL1       -0.2167
     19 H          61.8027   90.5993   11.8236 H       1  UNL1        0.2923
     20 C          63.6955   90.1184   12.7630 C.3     1  UNL1        0.2258
     21 C          63.5339   91.4321   10.0708 C.3     1  UNL1        0.0308
     22 C          64.4539   91.9825   11.1199 C.ar    1  UNL1       -0.0223
     23 C          65.2931   93.1898   10.8229 C.ar    1  UNL1       -0.0045
     24 C          66.2131   93.7402   11.8720 C.ar    1  UNL1       -0.0007
     25 C          66.2939   93.0834   13.2181 C.ar    1  UNL1       -0.0045
     26 C          65.4547   91.8761   13.5151 C.ar    1  UNL1       -0.0223
     27 C          65.5355   91.2193   14.8612 C.3     1  UNL1        0.0308
     28 C          64.5347   91.3257   12.4660 C.ar    1  UNL1        0.0162
@<TRIPOS>BOND
     1    21    22    1
     2    22    23   ar
     3    23    24   ar
     4    24    25   ar
     5    25    26   ar
     6    26    27    1
     7    26    28   ar
     8    28    20    1
     9    20    18    1
    10    18     1    1
    11     1     2    2
    12     2     3    1
    13     3    12    1
    14    12    13   ar
    15    13    14   ar
    16    14    15   ar
    17    15    16   ar
    18    16    17   ar
    19     3     4    2
    20     4     5    1
    21     5     6    2
    22     6     7    1
    23     6     8    1
    24     8     9    1
    25     8    10    2
    26    10    11    1
    27    28    22   ar
    28    11     1    1
    29    17    12   ar
    30    11     5    1
    31    18    19    1
@<TRIPOS>MOLECULE
*****
 28 31 0 0 0
SMALL
GASTEIGER

@<TRIPOS>ATOM
      1 C          62.1481   88.4820   11.4380 C.2     1  UNL1        0.3239
      2 N          62.6725   87.2661   12.1426 N.2     1  UNL1       -0.0423
      3 C          62.3966   85.9003   11.5873 C.2     1  UNL1        0.1926
      4 C          61.5964   85.7504   10.3274 C.2     1  UNL1        0.0445
      5 C          61.0721   86.9664    9.6229 C.2     1  UNL1        0.0124
      6 C          60.2596   87.1298    8.3726 C.2     1  UNL1       -0.0101
      7 C          59.7609   86.0210    7.4941 C.3     1  UNL1        0.0320
      8 C          60.0333   88.5966    8.1552 C.2     1  UNL1        0.0509
      9 C          59.2685   89.2121    7.0210 C.3     1  UNL1        0.0513
     10 N          60.7059   89.3398    9.2711 N.2     1  UNL1       -0.2603
     11 C          61.3480   88.3322   10.1782 C.3     1  UNL1        0.2295
     12 C          62.9210   84.6842   12.2919 C.ar    1  UNL1        0.0430
     13 C          62.7595   83.3289   11.6696 C.ar    1  UNL1        0.0037
     14 C          63.2838   82.1129   12.3741 C.ar    1  UNL1        0.0001
     15 C          63.9696   82.2521   13.7009 C.ar    1  UNL1        0.0000
     16 C          64.1311   83.6074   14.3232 C.ar    1  UNL1        0.0001
     17 C          63.6067   84.8234   13.6186 C.ar    1  UNL1        0.0037
     18 N          62.4240   89.8480   11.9933 N.pl3   1  UNL1       -0.2167
     19 H          61.7793   90.5777   11.8483 H       1  UNL1        0.2923
     20 C          63.6822   90.1019   12.7695 C.3     1  UNL1        0.2258
     21 C          65.5040   91.2202   14.8744 C.3     1  UNL1        0.0308
     22 C          65.4244   91.8742   13.5269 C.ar    1  UNL1       -0.0223
     23 C          66.2557   93.0875   13.2318 C.ar    1  UNL1       -0.0045
     24 C          66.1761   93.7415   11.8843 C.ar    1  UNL1       -0.0007
     25 C          65.2652   93.1824   10.8318 C.ar    1  UNL1       -0.0045
     26 C          64.4339   91.9692   11.1269 C.ar    1  UNL1       -0.0223
     27 C          63.5230   91.4101   10.0744 C.3     1  UNL1        0.0308
     28 C          64.5135   91.3151   12.4745 C.ar    1  UNL1        0.0162
@<TRIPOS>BOND
     1    21    22    1
     2    22    23   ar
     3    23    24   ar
     4    24    25   ar
     5    25    26   ar
     6    26    27    1
     7    26    28   ar
     8    28    20    1
     9    20    18    1
    10    18     1    1
    11     1     2    2
    12     2     3    1
    13     3    12    1
    14    12    13   ar
    15    13    14   ar
    16    14    15   ar
    17    15    16   ar
    18    16    17   ar
    19     3     4    2
    20     4     5    1
    21     5     6    2
    22     6     7    1
    23     6     8    1
    24     8     9    1
    25     8    10    2
    26    10    11    1
    27    28    22   ar
    28    11     1    1
    29    17    12   ar
    30    11     5    1
    31    18    19    1
@<TRIPOS>MOLECULE
*****
 28 31 0 0 0
SMALL
GASTEIGER

@<TRIPOS>ATOM
      1 C          63.4108   86.8253   13.2016 C.2     1  UNL1        0.3239
      2 N          62.6052   86.4076   12.0072 N.2     1  UNL1       -0.0423
      3 C          62.1949   87.4265   10.9857 C.2     1  UNL1        0.1926
      4 C          62.5903   88.8631   11.1585 C.2     1  UNL1        0.0445
      5 C          63.3960   89.2808   12.3529 C.2     1  UNL1        0.0124
      6 C          63.9287   90.6138   12.7879 C.2     1  UNL1       -0.0101
      7 C          63.7527   91.9136   12.0603 C.3     1  UNL1        0.0320
      8 C          64.6682   90.4188   14.0783 C.2     1  UNL1        0.0509
      9 C          65.3616   91.4894   14.8676 C.3     1  UNL1        0.0513
     10 N          64.5925   88.9652   14.4408 N.2     1  UNL1       -0.2603
     11 C          63.8062   88.2619   13.3744 C.3     1  UNL1        0.2295
     12 C          61.3892   87.0088    9.7914 C.ar    1  UNL1        0.0430
     13 C          61.9679   86.0484    8.7950 C.ar    1  UNL1        0.0037
     14 C          61.1623   85.6307    7.6006 C.ar    1  UNL1        0.0001
     15 C          59.7779   86.1734    7.4026 C.ar    1  UNL1        0.0000
     16 C          59.1993   87.1338    8.3990 C.ar    1  UNL1        0.0001
     17 C          60.0050   87.5514    9.5934 C.ar    1  UNL1        0.0037
     18 N          63.8211   85.8064   14.2231 N.pl3   1  UNL1       -0.2167
     19 H          63.6805   85.9854   15.1810 H       1  UNL1        0.2923
     20 C          64.4457   84.5148   13.7853 C.3     1  UNL1        0.2258
     21 C          64.5958   83.0708   11.1600 C.3     1  UNL1        0.0308
     22 C          63.6606   82.5884   12.2289 C.ar    1  UNL1       -0.0223
     23 C          62.8003   81.3840   11.9852 C.ar    1  UNL1       -0.0045
     24 C          61.8650   80.9016   13.0540 C.ar    1  UNL1       -0.0007
     25 C          61.7900   81.6236   14.3667 C.ar    1  UNL1       -0.0045
     26 C          62.6502   82.8280   14.6105 C.ar    1  UNL1       -0.0223
     27 C          62.5751   83.5500   15.9231 C.3     1  UNL1        0.0308
     28 C          63.5855   83.3104   13.5415 C.ar    1  UNL1        0.0162
@<TRIPOS>BOND
     1    21    22    1
     2    22    23   ar
     3    23    24   ar
     4    24    25   ar
     5    25    26   ar
     6    26    27    1
     7    26    28   ar
     8    28    20    1
     9    20    18    1
    10    18     1    1
    11     1     2    2
    12     2     3    1
    13     3    12    1
    14    12    13   ar
    15    13    14   ar
    16    14    15   ar
    17    15    16   ar
    18    16    17   ar
    19     3     4    2
    20     4     5    1
    21     5     6    2
    22     6     7    1
    23     6     8    1
    24     8     9    1
    25     8    10    2
    26    10    11    1
    27    28    22   ar
    28    11     1    1
    29    17    12   ar
    30    11     5    1
    31    18    19    1
@<TRIPOS>MOLECULE
*****
 28 31 0 0 0
SMALL
GASTEIGER

@<TRIPOS>ATOM
      1 C          62.1900   88.2486   11.5842 C.2     1  UNL1        0.3239
      2 N          62.6978   86.9869   12.2167 N.2     1  UNL1       -0.0423
      3 C          62.4200   85.6608   11.5731 C.2     1  UNL1        0.1926
      4 C          61.6344   85.5965   10.2969 C.2     1  UNL1        0.0445
      5 C          61.1266   86.8582    9.6643 C.2     1  UNL1        0.0124
      6 C          60.3306   87.1059    8.4174 C.2     1  UNL1       -0.0101
      7 C          59.8356   86.0583    7.4647 C.3     1  UNL1        0.0320
      8 C          60.1163   88.5851    8.2903 C.2     1  UNL1        0.0509
      9 C          59.3696   89.2764    7.1882 C.3     1  UNL1        0.0513
     10 N          60.7800   89.2516    9.4588 N.2     1  UNL1       -0.2603
     11 C          61.4044   88.1842   10.3080 C.3     1  UNL1        0.2295
     12 C          62.9279   84.3990   12.2056 C.ar    1  UNL1        0.0430
     13 C          62.7661   84.1820   13.6810 C.ar    1  UNL1        0.0037
     14 C          63.2739   82.9203   14.3136 C.ar    1  UNL1        0.0001
     15 C          63.9435   81.8755   13.4707 C.ar    1  UNL1        0.0000
     16 C          64.1052   82.0926   11.9954 C.ar    1  UNL1        0.0001
     17 C          63.5974   83.3544   11.3628 C.ar    1  UNL1        0.0037
     18 N          62.4678   89.5748   12.2278 N.pl3   1  UNL1       -0.2167
     19 H          61.9569   89.8531   13.0220 H       1  UNL1        0.2923
     20 C          63.5239   90.4768   11.6613 C.3     1  UNL1        0.2258
     21 C          65.0649   92.8513   10.6680 C.3     1  UNL1        0.0308
     22 C          65.2375   92.3836   12.0826 C.ar    1  UNL1       -0.0223
     23 C          66.1807   93.1031   13.0007 C.ar    1  UNL1       -0.0045
     24 C          66.3533   92.6353   14.4154 C.ar    1  UNL1       -0.0007
     25 C          65.5828   91.4480   14.9121 C.ar    1  UNL1       -0.0045
     26 C          64.6396   90.7285   13.9941 C.ar    1  UNL1       -0.0223
     27 C          63.8691   89.5413   14.4907 C.3     1  UNL1        0.0308
     28 C          64.4670   91.1963   12.5793 C.ar    1  UNL1        0.0162
@<TRIPOS>BOND
     1    21    22    1
     2    22    23   ar
     3    23    24   ar
     4    24    25   ar
     5    25    26   ar
     6    26    27    1
     7    26    28   ar
     8    28    20    1
     9    20    18    1
    10    18     1    1
    11     1     2    2
    12     2     3    1
    13     3    12    1
    14    12    13   ar
    15    13    14   ar
    16    14    15   ar
    17    15    16   ar
    18    16    17   ar
    19     3     4    2
    20     4     5    1
    21     5     6    2
    22     6     7    1
    23     6     8    1
    24     8     9    1
    25     8    10    2
    26    10    11    1
    27    28    22   ar
    28    11     1    1
    29    17    12   ar
    30    11     5    1
    31    18    19    1
@<TRIPOS>MOLECULE
*****
 28 31 0 0 0
SMALL
GASTEIGER

@<TRIPOS>ATOM
      1 C          62.2640   86.9487   11.9880 C.2     1  UNL1        0.3239
      2 N          63.1436   88.0259   12.5500 N.2     1  UNL1       -0.0423
      3 C          63.1813   89.3778   11.9012 C.2     1  UNL1        0.1926
      4 C          62.3394   89.6525   10.6906 C.2     1  UNL1        0.0445
      5 C          61.4597   88.5752   10.1287 C.2     1  UNL1        0.0124
      6 C          60.5261   88.5523    8.9549 C.2     1  UNL1       -0.0101
      7 C          60.2548   89.6949    8.0217 C.3     1  UNL1        0.0320
      8 C          59.9113   87.1862    8.8782 C.2     1  UNL1        0.0509
      9 C          58.9173   86.7228    7.8548 C.3     1  UNL1        0.0513
     10 N          60.4651   86.3648   10.0046 N.2     1  UNL1       -0.2603
     11 C          61.4221   87.2233   10.7774 C.3     1  UNL1        0.2295
     12 C          64.0610   90.4551   12.4631 C.ar    1  UNL1        0.0430
     13 C          64.4443   91.6298   11.6128 C.ar    1  UNL1        0.0037
     14 C          65.3239   92.7071   12.1747 C.ar    1  UNL1        0.0001
     15 C          65.8203   92.6097   13.5869 C.ar    1  UNL1        0.0000
     16 C          65.4370   91.4349   14.4372 C.ar    1  UNL1        0.0001
     17 C          64.5573   90.3576   13.8753 C.ar    1  UNL1        0.0037
     18 N          62.2263   85.5967   12.6368 N.pl3   1  UNL1       -0.2167
     19 H          61.4288   85.3144   13.1403 H       1  UNL1        0.2923
     20 C          63.4037   84.6749   12.5184 C.3     1  UNL1        0.2258
     21 C          63.8900   83.2628    9.9166 C.3     1  UNL1        0.0308
     22 C          63.4326   82.4877   11.1165 C.ar    1  UNL1       -0.0223
     23 C          63.2183   81.0064   11.0156 C.ar    1  UNL1       -0.0045
     24 C          62.7609   80.2313   12.2156 C.ar    1  UNL1       -0.0007
     25 C          62.5178   80.9374   13.5165 C.ar    1  UNL1       -0.0045
     26 C          62.7320   82.4186   13.6175 C.ar    1  UNL1       -0.0223
     27 C          62.4889   83.1246   14.9184 C.3     1  UNL1        0.0308
     28 C          63.1895   83.1937   12.4174 C.ar    1  UNL1        0.0162
@<TRIPOS>BOND
     1    21    22    1
     2    22    23   ar
     3    23    24   ar
     4    24    25   ar
     5    25    26   ar
     6    26    27    1
     7    26    28   ar
     8    28    20    1
     9    20    18    1
    10    18     1    1
    11     1     2    2
    12     2     3    1
    13     3    12    1
    14    12    13   ar
    15    13    14   ar
    16    14    15   ar
    17    15    16   ar
    18    16    17   ar
    19     3     4    2
    20     4     5    1
    21     5     6    2
    22     6     7    1
    23     6     8    1
    24     8     9    1
    25     8    10    2
    26    10    11    1
    27    28    22   ar
    28    11     1    1
    29    17    12   ar
    30    11     5    1
    31    18    19    1
@<TRIPOS>MOLECULE
*****
 28 31 0 0 0
SMALL
GASTEIGER

@<TRIPOS>ATOM
      1 C          62.2730   86.9495   11.9793 C.2     1  UNL1        0.3239
      2 N          63.1503   88.0315   12.5358 N.2     1  UNL1       -0.0423
      3 C          63.1869   89.3794   11.8787 C.2     1  UNL1        0.1926
      4 C          62.3464   89.6453   10.6651 C.2     1  UNL1        0.0445
      5 C          61.4692   88.5633   10.1086 C.2     1  UNL1        0.0124
      6 C          60.5373   88.5317    8.9336 C.2     1  UNL1       -0.0101
      7 C          60.2657   89.6680    7.9929 C.3     1  UNL1        0.0320
      8 C          59.9247   87.1642    8.8645 C.2     1  UNL1        0.0509
      9 C          58.9329   86.6930    7.8425 C.3     1  UNL1        0.0513
     10 N          60.4779   86.3507    9.9968 N.2     1  UNL1       -0.2603
     11 C          61.4325   87.2154   10.7657 C.3     1  UNL1        0.2295
     12 C          64.0642   90.4615   12.4352 C.ar    1  UNL1        0.0430
     13 C          64.5715   90.3656   13.8435 C.ar    1  UNL1        0.0037
     14 C          65.4487   91.4476   14.4000 C.ar    1  UNL1        0.0001
     15 C          65.8187   92.6256   13.5482 C.ar    1  UNL1        0.0000
     16 C          65.3113   92.7215   12.1399 C.ar    1  UNL1        0.0001
     17 C          64.4341   91.6394   11.5834 C.ar    1  UNL1        0.0037
     18 N          62.2363   85.6016   12.6364 N.pl3   1  UNL1       -0.2167
     19 H          61.4375   85.3202   13.1384 H       1  UNL1        0.2923
     20 C          63.4167   84.6823   12.5285 C.3     1  UNL1        0.2258
     21 C          62.4895   83.0600   14.8756 C.3     1  UNL1        0.0308
     22 C          62.7419   82.3933   13.5558 C.ar    1  UNL1       -0.0223
     23 C          62.5307   80.9154   13.4096 C.ar    1  UNL1       -0.0045
     24 C          62.7831   80.2488   12.0898 C.ar    1  UNL1       -0.0007
     25 C          63.2467   81.0599   10.9163 C.ar    1  UNL1       -0.0045
     26 C          63.4579   82.5377   11.0625 C.ar    1  UNL1       -0.0223
     27 C          63.9215   83.3488    9.8890 C.3     1  UNL1        0.0308
     28 C          63.2055   83.2045   12.3823 C.ar    1  UNL1        0.0162
@<TRIPOS>BOND
     1    21    22    1
     2    22    23   ar
     3    23    24   ar
     4    24    25   ar
     5    25    26   ar
     6    26    27    1
     7    26    28   ar
     8    28    20    1
     9    20    18    1
    10    18     1    1
    11     1     2    2
    12     2     3    1
    13     3    12    1
    14    12    13   ar
    15    13    14   ar
    16    14    15   ar
    17    15    16   ar
    18    16    17   ar
    19     3     4    2
    20     4     5    1
    21     5     6    2
    22     6     7    1
    23     6     8    1
    24     8     9    1
    25     8    10    2
    26    10    11    1
    27    28    22   ar
    28    11     1    1
    29    17    12   ar
    30    11     5    1
    31    18    19    1
@<TRIPOS>MOLECULE
*****
 28 31 0 0 0
SMALL
GASTEIGER

@<TRIPOS>ATOM
      1 C          63.5830   87.0030   13.6060 C.2     1  UNL1        0.3239
      2 N          64.2558   88.0911   14.3892 N.2     1  UNL1       -0.0423
      3 C          64.2143   89.5066   13.8946 C.2     1  UNL1        0.1926
      4 C          63.5000   89.8340   12.6168 C.2     1  UNL1        0.0445
      5 C          62.8273   88.7459   11.8337 C.2     1  UNL1        0.0124
      6 C          62.0529   88.7655   10.5492 C.2     1  UNL1       -0.0101
      7 C          61.7660   89.9760    9.7112 C.3     1  UNL1        0.0320
      8 C          61.6157   87.3622   10.2499 C.2     1  UNL1        0.0509
      9 C          60.8149   86.9230    9.0600 C.3     1  UNL1        0.0513
     10 N          62.1200   86.4752   11.3494 N.2     1  UNL1       -0.2603
     11 C          62.8688   87.3304   12.3283 C.3     1  UNL1        0.2295
     12 C          64.8871   90.5948   14.6778 C.ar    1  UNL1        0.0430
     13 C          64.2009   91.1959   15.8685 C.ar    1  UNL1        0.0037
     14 C          64.8736   92.2840   16.6517 C.ar    1  UNL1        0.0001
     15 C          66.2325   92.7711   16.2441 C.ar    1  UNL1        0.0000
     16 C          66.9187   92.1700   15.0534 C.ar    1  UNL1        0.0001
     17 C          66.2460   91.0818   14.2702 C.ar    1  UNL1        0.0037
     18 N          63.6245   85.5874   14.1006 N.pl3   1  UNL1       -0.2167
     19 H          63.2584   85.3648   14.9870 H       1  UNL1        0.2923
     20 C          64.2237   84.5112   13.2447 C.3     1  UNL1        0.2258
     21 C          64.4230   82.9424   10.6953 C.3     1  UNL1        0.0308
     22 C          63.6430   82.3951   11.8538 C.ar    1  UNL1       -0.0223
     23 C          62.9625   81.0633   11.7376 C.ar    1  UNL1       -0.0045
     24 C          62.1825   80.5160   12.8960 C.ar    1  UNL1       -0.0007
     25 C          62.0829   81.3004   14.1707 C.ar    1  UNL1       -0.0045
     26 C          62.7633   82.6321   14.2869 C.ar    1  UNL1       -0.0223
     27 C          62.6637   83.4165   15.5616 C.3     1  UNL1        0.0308
     28 C          63.5433   83.1795   13.1284 C.ar    1  UNL1        0.0162
@<TRIPOS>BOND
     1    21    22    1
     2    22    23   ar
     3    23    24   ar
     4    24    25   ar
     5    25    26   ar
     6    26    27    1
     7    26    28   ar
     8    28    20    1
     9    20    18    1
    10    18     1    1
    11     1     2    2
    12     2     3    1
    13     3    12    1
    14    12    13   ar
    15    13    14   ar
    16    14    15   ar
    17    15    16   ar
    18    16    17   ar
    19     3     4    2
    20     4     5    1
    21     5     6    2
    22     6     7    1
    23     6     8    1
    24     8     9    1
    25     8    10    2
    26    10    11    1
    27    28    22   ar
    28    11     1    1
    29    17    12   ar
    30    11     5    1
    31    18    19    1
