@<TRIPOS>MOLECULE
*****
 47 51 0 0 0
SMALL
GASTEIGER

@<TRIPOS>ATOM
      1 C          64.0281   89.6869   13.4277 C.3     1  UNL1        0.1281
      2 C          64.4817   90.9723   12.8016 C.2     1  UNL1        0.2325
      3 O          63.7622   91.5181   11.6040 O.2     1  UNL1       -0.2742
      4 N          65.6549   91.7119   13.3732 N.am    1  UNL1       -0.3033
      5 H          66.1272   91.3536   14.1593 H       1  UNL1        0.1495
      6 C          66.1086   92.9973   12.7471 C.3     1  UNL1        0.0941
      7 C          66.6799   92.9953   11.3603 C.3     1  UNL1        0.0492
      8 C          66.8085   94.2822   10.6003 C.ar    1  UNL1       -0.0013
      9 C          67.5162   94.3047    9.2779 C.ar    1  UNL1       -0.0011
     10 C          67.6448   95.5915    8.5180 C.ar    1  UNL1        0.0204
     11 C          67.0658   96.8558    9.0804 C.ar    1  UNL1        0.0989
     12 N          66.3582   96.8332   10.4027 N.ar    1  UNL1       -0.2426
     13 C          66.2295   95.5464   11.1627 C.ar    1  UNL1        0.0946
     14 S          62.8741   88.9316   12.8377 S.3     1  UNL1       -0.1298
     15 C          63.1186   87.6604   12.0799 C.3     1  UNL1        0.0780
     16 C          62.0633   86.5952   12.0418 C.3     1  UNL1        0.0899
     17 C          60.7713   87.0181    9.8278 C.2     1  UNL1        0.4014
     18 O          62.0591   86.9453    9.0623 O.2     1  UNL1       -0.2264
     19 N          60.7733   86.8430   11.3176 N.am    1  UNL1       -0.2711
     20 H          59.9280   86.8908   11.8200 H       1  UNL1        0.1527
     21 O          59.4813   87.2659    9.1035 O.3     1  UNL1       -0.4419
     22 C          59.0640   87.0500    7.0349 C.3     1  UNL1        0.0437
     23 C          59.4488   88.1940    7.9255 C.3     1  UNL1        0.1378
     24 C          59.8336   89.3379    8.8161 C.3     1  UNL1        0.0437
     25 C          59.4164   89.1220    6.7476 C.3     1  UNL1        0.0437
     26 C          62.2979   85.2820   12.7279 C.3     1  UNL1        0.0469
     27 C          62.7978   84.1050   11.9439 C.ar    1  UNL1       -0.0205
     28 C          63.5393   84.3207   10.6579 C.ar    1  UNL1       -0.0042
     29 C          64.0392   83.1436    9.8739 C.ar    1  UNL1       -0.0003
     30 C          63.7975   81.7509   10.3759 C.ar    1  UNL1       -0.0000
     31 C          63.0560   81.5352   11.6618 C.ar    1  UNL1       -0.0003
     32 C          62.8143   80.1425   12.1636 C.ar    1  UNL1       -0.0000
     33 C          62.0727   79.9268   13.4496 C.ar    1  UNL1       -0.0000
     34 C          61.5729   81.1039   14.2336 C.ar    1  UNL1       -0.0000
     35 C          61.8146   82.4966   13.7317 C.ar    1  UNL1       -0.0003
     36 C          62.5561   82.7123   12.4458 C.ar    1  UNL1       -0.0039
     37 C          64.7283   89.1568   14.6437 C.3     1  UNL1        0.0463
     38 C          64.0102   88.2283   15.5776 C.ar    1  UNL1       -0.0208
     39 C          63.0892   88.7817   16.6242 C.ar    1  UNL1       -0.0042
     40 C          62.3712   87.8531   17.5581 C.ar    1  UNL1       -0.0003
     41 C          62.5741   86.3712   17.4454 C.ar    1  UNL1       -0.0000
     42 C          63.4951   85.8178   16.3988 C.ar    1  UNL1       -0.0003
     43 C          63.6981   84.3359   16.2861 C.ar    1  UNL1       -0.0000
     44 C          64.6191   83.7825   15.2395 C.ar    1  UNL1       -0.0000
     45 C          65.3372   84.7110   14.3055 C.ar    1  UNL1       -0.0000
     46 C          65.1342   86.1929   14.4182 C.ar    1  UNL1       -0.0003
     47 C          64.2132   86.7463   15.4648 C.ar    1  UNL1       -0.0039
@<TRIPOS>BOND
     1    22    23    1
     2    23    24    1
     3    23    25    1
     4    23    21    1
     5    21    17    1
     6    17    18    2
     7    17    19   am
     8    19    16    1
     9    16    15    1
    10    15    14    1
    11    14     1    1
    12     1    37    1
    13    37    38    1
    14    38    39   ar
    15    39    40   ar
    16    40    41   ar
    17    41    42   ar
    18    42    43   ar
    19    43    44   ar
    20    44    45   ar
    21    45    46   ar
    22    46    47   ar
    23     1     2    1
    24     2     3    2
    25     2     4   am
    26     4     6    1
    27     6     7    1
    28     7     8    1
    29     8     9   ar
    30     9    10   ar
    31    10    11   ar
    32    11    12   ar
    33    12    13   ar
    34    16    26    1
    35    26    27    1
    36    27    28   ar
    37    28    29   ar
    38    29    30   ar
    39    30    31   ar
    40    31    32   ar
    41    32    33   ar
    42    33    34   ar
    43    34    35   ar
    44    35    36   ar
    45    47    38   ar
    46    13     8   ar
    47    36    27   ar
    48    47    42   ar
    49    36    31   ar
    50    19    20    1
    51     4     5    1
@<TRIPOS>MOLECULE
*****
 47 51 0 0 0
SMALL
GASTEIGER

@<TRIPOS>ATOM
      1 C          60.8423   88.2000   10.0817 C.3     1  UNL1        0.1281
      2 C          60.0065   88.1735    8.8364 C.2     1  UNL1        0.2325
      3 O          59.0853   87.0188    8.5759 O.2     1  UNL1       -0.2742
      4 N          60.0920   89.3018    7.8516 N.am    1  UNL1       -0.3033
      5 H          60.6966   90.0597    8.0226 H       1  UNL1        0.1495
      6 C          59.2562   89.2753    6.6063 C.3     1  UNL1        0.0941
      7 C          58.7334   90.5561    6.0265 C.3     1  UNL1        0.0492
      8 C          59.5118   91.2699    4.9613 C.ar    1  UNL1       -0.0013
      9 C          60.9566   90.9352    4.7366 C.ar    1  UNL1       -0.0011
     10 C          61.7349   91.6490    3.6714 C.ar    1  UNL1        0.0204
     11 C          61.0685   92.6975    2.8308 C.ar    1  UNL1        0.0989
     12 N          59.6237   93.0321    3.0555 N.ar    1  UNL1       -0.2426
     13 C          58.8453   92.3183    4.1207 C.ar    1  UNL1        0.0946
     14 S          61.3977   89.4995   10.5847 S.3     1  UNL1       -0.1298
     15 C          61.4739   89.7618   12.0596 C.3     1  UNL1        0.0780
     16 C          62.7796   90.1541   12.6850 C.3     1  UNL1        0.0899
     17 C          63.5415   88.9661   14.8664 C.2     1  UNL1        0.4014
     18 O          62.6224   89.8423   15.6646 O.2     1  UNL1       -0.2264
     19 N          63.6202   89.1220   13.3765 N.am    1  UNL1       -0.2711
     20 H          64.2235   88.5469   12.8525 H       1  UNL1        0.1527
     21 O          64.3821   87.9340   15.5578 O.3     1  UNL1       -0.4419
     22 C          62.9660   87.3715   17.0336 C.3     1  UNL1        0.0437
     23 C          63.7674   86.6388   15.9988 C.3     1  UNL1        0.1378
     24 C          64.5688   85.9061   14.9641 C.3     1  UNL1        0.0437
     25 C          63.1526   85.3436   16.4399 C.3     1  UNL1        0.0437
     26 C          63.2448   91.5787   12.6190 C.3     1  UNL1        0.0469
     27 C          64.6593   91.8884   12.2276 C.ar    1  UNL1       -0.0205
     28 C          65.0220   92.0340   10.7793 C.ar    1  UNL1       -0.0042
     29 C          66.4365   92.3437   10.3879 C.ar    1  UNL1       -0.0003
     30 C          67.4884   92.5077   11.4448 C.ar    1  UNL1       -0.0000
     31 C          67.1256   92.3621   12.8929 C.ar    1  UNL1       -0.0003
     32 C          68.1775   92.5261   13.9496 C.ar    1  UNL1       -0.0000
     33 C          67.8148   92.3805   15.3979 C.ar    1  UNL1       -0.0000
     34 C          66.4002   92.0708   15.7893 C.ar    1  UNL1       -0.0000
     35 C          65.3484   91.9068   14.7325 C.ar    1  UNL1       -0.0003
     36 C          65.7111   92.0524   13.2843 C.ar    1  UNL1       -0.0039
     37 C          61.1228   86.9271   10.8239 C.3     1  UNL1        0.0463
     38 C          62.0346   85.8963   10.2273 C.ar    1  UNL1       -0.0208
     39 C          62.4028   85.9712    8.7751 C.ar    1  UNL1       -0.0042
     40 C          63.3146   84.9403    8.1784 C.ar    1  UNL1       -0.0003
     41 C          63.8582   83.8347    9.0339 C.ar    1  UNL1       -0.0000
     42 C          63.4901   83.7597   10.4861 C.ar    1  UNL1       -0.0003
     43 C          64.0337   82.6541   11.3416 C.ar    1  UNL1       -0.0000
     44 C          63.6655   82.5792   12.7938 C.ar    1  UNL1       -0.0000
     45 C          62.7537   83.6100   13.3904 C.ar    1  UNL1       -0.0000
     46 C          62.2101   84.7157   12.5350 C.ar    1  UNL1       -0.0003
     47 C          62.5783   84.7906   11.0828 C.ar    1  UNL1       -0.0039
@<TRIPOS>BOND
     1    22    23    1
     2    23    24    1
     3    23    25    1
     4    23    21    1
     5    21    17    1
     6    17    18    2
     7    17    19   am
     8    19    16    1
     9    16    15    1
    10    15    14    1
    11    14     1    1
    12     1    37    1
    13    37    38    1
    14    38    39   ar
    15    39    40   ar
    16    40    41   ar
    17    41    42   ar
    18    42    43   ar
    19    43    44   ar
    20    44    45   ar
    21    45    46   ar
    22    46    47   ar
    23     1     2    1
    24     2     3    2
    25     2     4   am
    26     4     6    1
    27     6     7    1
    28     7     8    1
    29     8     9   ar
    30     9    10   ar
    31    10    11   ar
    32    11    12   ar
    33    12    13   ar
    34    16    26    1
    35    26    27    1
    36    27    28   ar
    37    28    29   ar
    38    29    30   ar
    39    30    31   ar
    40    31    32   ar
    41    32    33   ar
    42    33    34   ar
    43    34    35   ar
    44    35    36   ar
    45    47    38   ar
    46    13     8   ar
    47    36    27   ar
    48    47    42   ar
    49    36    31   ar
    50    19    20    1
    51     4     5    1
@<TRIPOS>MOLECULE
*****
 47 51 0 0 0
SMALL
GASTEIGER

@<TRIPOS>ATOM
      1 C          63.9515   89.5472   13.4883 C.3     1  UNL1        0.1281
      2 C          64.2955   90.9876   13.2498 C.2     1  UNL1        0.2325
      3 O          64.2372   91.9701   14.3817 O.2     1  UNL1       -0.2742
      4 N          64.6980   91.4455   11.8792 N.am    1  UNL1       -0.3033
      5 H          64.7363   90.8007   11.1362 H       1  UNL1        0.1495
      6 C          65.0421   92.8859   11.6406 C.3     1  UNL1        0.0941
      7 C          66.4267   93.3843   11.9309 C.3     1  UNL1        0.0492
      8 C          67.0554   93.1170   13.2664 C.ar    1  UNL1       -0.0013
      9 C          67.8697   91.8751   13.4769 C.ar    1  UNL1       -0.0011
     10 C          68.4984   91.6078   14.8123 C.ar    1  UNL1        0.0204
     11 C          68.3128   92.5825   15.9372 C.ar    1  UNL1        0.0989
     12 N          67.4984   93.8245   15.7267 N.ar    1  UNL1       -0.2426
     13 C          66.8697   94.0917   14.3913 C.ar    1  UNL1        0.0946
     14 S          62.8332   88.9062   12.7209 S.3     1  UNL1       -0.1298
     15 C          63.0650   87.6127   11.9977 C.3     1  UNL1        0.0780
     16 C          61.9751   86.5842   11.9327 C.3     1  UNL1        0.0899
     17 C          60.7430   86.9765    9.6792 C.2     1  UNL1        0.4014
     18 O          62.0343   86.7868    8.9401 O.2     1  UNL1       -0.2264
     19 N          60.7133   86.8752   11.1756 N.am    1  UNL1       -0.2711
     20 H          59.8658   86.9998   11.6607 H       1  UNL1        0.1527
     21 O          59.4812   87.2676    8.9221 O.3     1  UNL1       -0.4419
     22 C          59.8833   89.3489    8.8429 C.3     1  UNL1        0.0437
     23 C          59.4780   88.3081    7.8417 C.3     1  UNL1        0.1378
     24 C          59.0727   87.2673    6.8405 C.3     1  UNL1        0.0437
     25 C          59.4747   89.3486    6.7613 C.3     1  UNL1        0.0437
     26 C          62.1469   85.2645   12.6248 C.3     1  UNL1        0.0469
     27 C          62.6933   84.0881   11.8715 C.ar    1  UNL1       -0.0205
     28 C          63.4421   84.3007   10.5892 C.ar    1  UNL1       -0.0042
     29 C          63.9885   83.1242    9.8359 C.ar    1  UNL1       -0.0003
     30 C          63.7861   81.7352   10.3649 C.ar    1  UNL1       -0.0000
     31 C          63.0374   81.5227   11.6471 C.ar    1  UNL1       -0.0003
     32 C          62.8350   80.1337   12.1761 C.ar    1  UNL1       -0.0000
     33 C          62.0863   79.9211   13.4584 C.ar    1  UNL1       -0.0000
     34 C          61.5399   81.0975   14.2117 C.ar    1  UNL1       -0.0000
     35 C          61.7423   82.4866   13.6827 C.ar    1  UNL1       -0.0003
     36 C          62.4910   82.6991   12.4005 C.ar    1  UNL1       -0.0039
     37 C          64.7255   88.7479   14.4942 C.3     1  UNL1        0.0463
     38 C          64.0016   87.8749   15.4759 C.ar    1  UNL1       -0.0208
     39 C          63.1311   88.4930   16.5296 C.ar    1  UNL1       -0.0042
     40 C          62.4072   87.6200   17.5113 C.ar    1  UNL1       -0.0003
     41 C          62.5538   86.1289   17.4395 C.ar    1  UNL1       -0.0000
     42 C          63.4243   85.5108   16.3858 C.ar    1  UNL1       -0.0003
     43 C          63.5708   84.0197   16.3139 C.ar    1  UNL1       -0.0000
     44 C          64.4413   83.4016   15.2602 C.ar    1  UNL1       -0.0000
     45 C          65.1652   84.2746   14.2785 C.ar    1  UNL1       -0.0000
     46 C          65.0186   85.7657   14.3503 C.ar    1  UNL1       -0.0003
     47 C          64.1482   86.3837   15.4040 C.ar    1  UNL1       -0.0039
@<TRIPOS>BOND
     1    22    23    1
     2    23    24    1
     3    23    25    1
     4    23    21    1
     5    21    17    1
     6    17    18    2
     7    17    19   am
     8    19    16    1
     9    16    15    1
    10    15    14    1
    11    14     1    1
    12     1    37    1
    13    37    38    1
    14    38    39   ar
    15    39    40   ar
    16    40    41   ar
    17    41    42   ar
    18    42    43   ar
    19    43    44   ar
    20    44    45   ar
    21    45    46   ar
    22    46    47   ar
    23     1     2    1
    24     2     3    2
    25     2     4   am
    26     4     6    1
    27     6     7    1
    28     7     8    1
    29     8     9   ar
    30     9    10   ar
    31    10    11   ar
    32    11    12   ar
    33    12    13   ar
    34    16    26    1
    35    26    27    1
    36    27    28   ar
    37    28    29   ar
    38    29    30   ar
    39    30    31   ar
    40    31    32   ar
    41    32    33   ar
    42    33    34   ar
    43    34    35   ar
    44    35    36   ar
    45    47    38   ar
    46    13     8   ar
    47    36    27   ar
    48    47    42   ar
    49    36    31   ar
    50    19    20    1
    51     4     5    1
@<TRIPOS>MOLECULE
*****
 47 51 0 0 0
SMALL
GASTEIGER

@<TRIPOS>ATOM
      1 C          60.6022   88.3984   10.0294 C.3     1  UNL1        0.1281
      2 C          59.8484   88.3818    8.7326 C.2     1  UNL1        0.2325
      3 O          58.9254   87.2426    8.4162 O.2     1  UNL1       -0.2742
      4 N          60.0177   89.5045    7.7523 N.am    1  UNL1       -0.3033
      5 H          60.6236   90.2522    7.9600 H       1  UNL1        0.1495
      6 C          59.2639   89.4879    6.4556 C.3     1  UNL1        0.0941
      7 C          58.8568   90.7783    5.8081 C.3     1  UNL1        0.0492
      8 C          59.7374   91.4065    4.7689 C.ar    1  UNL1       -0.0013
      9 C          59.1657   92.4028    3.8043 C.ar    1  UNL1       -0.0011
     10 C          60.0463   93.0310    2.7651 C.ar    1  UNL1        0.0204
     11 C          61.4985   92.6630    2.6905 C.ar    1  UNL1        0.0989
     12 N          62.0701   91.6667    3.6552 N.ar    1  UNL1       -0.2426
     13 C          61.1896   91.0385    4.6944 C.ar    1  UNL1        0.0946
     14 S          61.0545   89.7022   10.6173 S.3     1  UNL1       -0.1298
     15 C          61.5879   89.7482   12.0185 C.3     1  UNL1        0.0780
     16 C          63.0678   89.7054   12.2594 C.3     1  UNL1        0.0899
     17 C          63.3500   88.5867   14.5872 C.2     1  UNL1        0.4014
     18 O          62.4542   89.6251   15.1949 O.2     1  UNL1       -0.2264
     19 N          63.6569   88.6268   13.1195 N.am    1  UNL1       -0.2711
     20 H          64.2448   87.9453   12.7206 H       1  UNL1        0.1527
     21 O          63.9391   87.5082   15.4473 O.3     1  UNL1       -0.4419
     22 C          63.3644   85.6556   16.3061 C.3     1  UNL1        0.0437
     23 C          63.2459   87.0948   16.7117 C.3     1  UNL1        0.1378
     24 C          63.1275   88.5340   17.1173 C.3     1  UNL1        0.0437
     25 C          62.5528   86.6814   17.9760 C.3     1  UNL1        0.0437
     26 C          63.9588   90.7412   11.6401 C.3     1  UNL1        0.0469
     27 C          64.7944   91.6302   12.5127 C.ar    1  UNL1       -0.0205
     28 C          65.1070   91.2194   13.9211 C.ar    1  UNL1       -0.0042
     29 C          65.9426   92.1084   14.7937 C.ar    1  UNL1       -0.0003
     30 C          66.4656   93.4083   14.2579 C.ar    1  UNL1       -0.0000
     31 C          66.1529   93.8190   12.8496 C.ar    1  UNL1       -0.0003
     32 C          66.6758   95.1188   12.3139 C.ar    1  UNL1       -0.0000
     33 C          66.3631   95.5297   10.9054 C.ar    1  UNL1       -0.0000
     34 C          65.5275   94.6407   10.0329 C.ar    1  UNL1       -0.0000
     35 C          65.0046   93.3408   10.5687 C.ar    1  UNL1       -0.0003
     36 C          65.3173   92.9300   11.9770 C.ar    1  UNL1       -0.0039
     37 C          60.9037   87.1113   10.7382 C.3     1  UNL1        0.0463
     38 C          61.8354   86.1133   10.1169 C.ar    1  UNL1       -0.0208
     39 C          62.0721   86.1291    8.6358 C.ar    1  UNL1       -0.0042
     40 C          63.0038   85.1311    8.0145 C.ar    1  UNL1       -0.0003
     41 C          63.6988   84.1174    8.8743 C.ar    1  UNL1       -0.0000
     42 C          63.4621   84.1016   10.3555 C.ar    1  UNL1       -0.0003
     43 C          64.1571   83.0879   11.2153 C.ar    1  UNL1       -0.0000
     44 C          63.9204   83.0721   12.6964 C.ar    1  UNL1       -0.0000
     45 C          62.9887   84.0701   13.3177 C.ar    1  UNL1       -0.0000
     46 C          62.2937   85.0838   12.4579 C.ar    1  UNL1       -0.0003
     47 C          62.5304   85.0996   10.9768 C.ar    1  UNL1       -0.0039
@<TRIPOS>BOND
     1    22    23    1
     2    23    24    1
     3    23    25    1
     4    23    21    1
     5    21    17    1
     6    17    18    2
     7    17    19   am
     8    19    16    1
     9    16    15    1
    10    15    14    1
    11    14     1    1
    12     1    37    1
    13    37    38    1
    14    38    39   ar
    15    39    40   ar
    16    40    41   ar
    17    41    42   ar
    18    42    43   ar
    19    43    44   ar
    20    44    45   ar
    21    45    46   ar
    22    46    47   ar
    23     1     2    1
    24     2     3    2
    25     2     4   am
    26     4     6    1
    27     6     7    1
    28     7     8    1
    29     8     9   ar
    30     9    10   ar
    31    10    11   ar
    32    11    12   ar
    33    12    13   ar
    34    16    26    1
    35    26    27    1
    36    27    28   ar
    37    28    29   ar
    38    29    30   ar
    39    30    31   ar
    40    31    32   ar
    41    32    33   ar
    42    33    34   ar
    43    34    35   ar
    44    35    36   ar
    45    47    38   ar
    46    13     8   ar
    47    36    27   ar
    48    47    42   ar
    49    36    31   ar
    50    19    20    1
    51     4     5    1
@<TRIPOS>MOLECULE
*****
 47 51 0 0 0
SMALL
GASTEIGER

@<TRIPOS>ATOM
      1 C          61.7361   89.2597   10.9449 C.3     1  UNL1        0.1281
      2 C          60.5388   88.9579   10.0931 C.2     1  UNL1        0.2325
      3 O          59.4427   88.0819   10.6233 O.2     1  UNL1       -0.2742
      4 N          60.4376   89.5323    8.7111 N.am    1  UNL1       -0.3033
      5 H          61.1570   90.1073    8.3631 H       1  UNL1        0.1495
      6 C          59.2403   89.2306    7.8593 C.3     1  UNL1        0.0941
      7 C          59.3892   89.1112    6.3716 C.3     1  UNL1        0.0492
      8 C          59.4376   90.3458    5.5212 C.ar    1  UNL1       -0.0013
      9 C          60.7371   90.7910    4.9186 C.ar    1  UNL1       -0.0011
     10 C          60.7856   92.0256    4.0682 C.ar    1  UNL1        0.0204
     11 C          59.5346   92.8152    3.8203 C.ar    1  UNL1        0.0989
     12 N          58.2351   92.3701    4.4229 N.ar    1  UNL1       -0.2426
     13 C          58.1866   91.1354    5.2733 C.ar    1  UNL1        0.0946
     14 S          62.1209   90.6831   11.2206 S.3     1  UNL1       -0.1298
     15 C          63.3909   91.2407   10.6497 C.3     1  UNL1        0.0780
     16 C          64.4806   91.7137   11.5655 C.3     1  UNL1        0.0899
     17 C          66.3799   93.2930   10.7601 C.2     1  UNL1        0.4014
     18 O          67.1544   92.1084   10.2636 O.2     1  UNL1       -0.2264
     19 N          65.0429   93.0957   11.4110 N.am    1  UNL1       -0.2711
     20 H          64.5345   93.8733   11.7369 H       1  UNL1        0.1527
     21 O          66.9422   94.6751   10.6056 O.3     1  UNL1       -0.4419
     22 C          67.5086   94.7697    8.5635 C.3     1  UNL1        0.0437
     23 C          66.5434   95.5202    9.4323 C.3     1  UNL1        0.1378
     24 C          65.5781   96.2708   10.3011 C.3     1  UNL1        0.0437
     25 C          66.1446   96.3654    8.2591 C.3     1  UNL1        0.0437
     26 C          65.0081   90.8047   12.6358 C.3     1  UNL1        0.0469
     27 C          65.0877   91.2842   14.0549 C.ar    1  UNL1       -0.0205
     28 C          63.8828   91.1983   14.9443 C.ar    1  UNL1       -0.0042
     29 C          63.9625   91.6778   16.3634 C.ar    1  UNL1       -0.0003
     30 C          65.2470   92.2433   16.8930 C.ar    1  UNL1       -0.0000
     31 C          66.4517   92.3291   16.0036 C.ar    1  UNL1       -0.0003
     32 C          67.7362   92.8945   16.5332 C.ar    1  UNL1       -0.0000
     33 C          68.9410   92.9804   15.6438 C.ar    1  UNL1       -0.0000
     34 C          68.8614   92.5009   14.2248 C.ar    1  UNL1       -0.0000
     35 C          67.5769   91.9355   13.6951 C.ar    1  UNL1       -0.0003
     36 C          66.3721   91.8496   14.5845 C.ar    1  UNL1       -0.0039
     37 C          62.5486   88.1381   11.5209 C.3     1  UNL1        0.0463
     38 C          62.7064   86.8569   10.7568 C.ar    1  UNL1       -0.0208
     39 C          62.6709   86.8687    9.2573 C.ar    1  UNL1       -0.0042
     40 C          62.8288   85.5876    8.4933 C.ar    1  UNL1       -0.0003
     41 C          63.0220   84.2947    9.2287 C.ar    1  UNL1       -0.0000
     42 C          63.0575   84.2828   10.7283 C.ar    1  UNL1       -0.0003
     43 C          63.2508   82.9899   11.4637 C.ar    1  UNL1       -0.0000
     44 C          63.2862   82.9781   12.9632 C.ar    1  UNL1       -0.0000
     45 C          63.1284   84.2592   13.7273 C.ar    1  UNL1       -0.0000
     46 C          62.9351   85.5522   12.9919 C.ar    1  UNL1       -0.0003
     47 C          62.8997   85.5640   11.4924 C.ar    1  UNL1       -0.0039
@<TRIPOS>BOND
     1    22    23    1
     2    23    24    1
     3    23    25    1
     4    23    21    1
     5    21    17    1
     6    17    18    2
     7    17    19   am
     8    19    16    1
     9    16    15    1
    10    15    14    1
    11    14     1    1
    12     1    37    1
    13    37    38    1
    14    38    39   ar
    15    39    40   ar
    16    40    41   ar
    17    41    42   ar
    18    42    43   ar
    19    43    44   ar
    20    44    45   ar
    21    45    46   ar
    22    46    47   ar
    23     1     2    1
    24     2     3    2
    25     2     4   am
    26     4     6    1
    27     6     7    1
    28     7     8    1
    29     8     9   ar
    30     9    10   ar
    31    10    11   ar
    32    11    12   ar
    33    12    13   ar
    34    16    26    1
    35    26    27    1
    36    27    28   ar
    37    28    29   ar
    38    29    30   ar
    39    30    31   ar
    40    31    32   ar
    41    32    33   ar
    42    33    34   ar
    43    34    35   ar
    44    35    36   ar
    45    47    38   ar
    46    13     8   ar
    47    36    27   ar
    48    47    42   ar
    49    36    31   ar
    50    19    20    1
    51     4     5    1
@<TRIPOS>MOLECULE
*****
 47 51 0 0 0
SMALL
GASTEIGER

@<TRIPOS>ATOM
      1 C          63.1052   89.2161   11.9101 C.3     1  UNL1        0.1281
      2 C          63.3135   87.9644   12.7099 C.2     1  UNL1        0.2325
      3 O          64.0941   88.0133   13.9898 O.2     1  UNL1       -0.2742
      4 N          62.7411   86.6636   12.2297 N.am    1  UNL1       -0.3033
      5 H          62.2288   86.6315   11.3896 H       1  UNL1        0.1495
      6 C          62.9495   85.4118   13.0295 C.3     1  UNL1        0.0941
      7 C          63.6497   84.2366   12.4143 C.3     1  UNL1        0.0492
      8 C          63.2009   82.8424   12.7381 C.ar    1  UNL1       -0.0013
      9 C          63.1562   81.7997   11.6608 C.ar    1  UNL1       -0.0011
     10 C          62.7074   80.4055   11.9845 C.ar    1  UNL1        0.0204
     11 C          62.3032   80.0541   13.3856 C.ar    1  UNL1        0.0989
     12 N          62.3479   81.0968   14.4630 N.ar    1  UNL1       -0.2426
     13 C          62.7967   82.4910   14.1392 C.ar    1  UNL1        0.0946
     14 S          62.8921   90.5261   12.6092 S.3     1  UNL1       -0.1298
     15 C          63.9852   91.1128   13.4523 C.3     1  UNL1        0.0780
     16 C          65.1095   91.8657   12.8049 C.3     1  UNL1        0.0899
     17 C          66.7933   93.5233   13.8852 C.2     1  UNL1        0.4014
     18 O          65.9396   94.6762   13.4470 O.2     1  UNL1       -0.2264
     19 N          66.3783   92.1180   13.5642 N.am    1  UNL1       -0.2711
     20 H          66.9386   91.3614   13.8518 H       1  UNL1        0.1527
     21 O          68.0622   93.7757   14.6444 O.3     1  UNL1       -0.4419
     22 C          69.8391   92.6586   14.9516 C.3     1  UNL1        0.0437
     23 C          68.5301   92.7886   15.6723 C.3     1  UNL1        0.1378
     24 C          67.2211   92.9187   16.3931 C.3     1  UNL1        0.0437
     25 C          68.9980   91.8015   16.7002 C.3     1  UNL1        0.0437
     26 C          64.9650   92.3663   11.3983 C.3     1  UNL1        0.0469
     27 C          66.1836   92.7286   10.6023 C.ar    1  UNL1       -0.0205
     28 C          67.2688   91.7151   10.3889 C.ar    1  UNL1       -0.0042
     29 C          68.4874   92.0774    9.5929 C.ar    1  UNL1       -0.0003
     30 C          68.6209   93.4532    9.0102 C.ar    1  UNL1       -0.0000
     31 C          67.5358   94.4666    9.2236 C.ar    1  UNL1       -0.0003
     32 C          67.6694   95.8423    8.6409 C.ar    1  UNL1       -0.0000
     33 C          66.5843   96.8558    8.8543 C.ar    1  UNL1       -0.0000
     34 C          65.3656   96.4935    9.6503 C.ar    1  UNL1       -0.0000
     35 C          65.2321   95.1177   10.2330 C.ar    1  UNL1       -0.0003
     36 C          66.3172   94.1043   10.0196 C.ar    1  UNL1       -0.0039
     37 C          63.1099   89.1580   10.4112 C.3     1  UNL1        0.0463
     38 C          61.8677   88.7570    9.6723 C.ar    1  UNL1       -0.0208
     39 C          60.6775   89.6697    9.6553 C.ar    1  UNL1       -0.0042
     40 C          59.4352   89.2686    8.9164 C.ar    1  UNL1       -0.0003
     41 C          59.3832   87.9549    8.1944 C.ar    1  UNL1       -0.0000
     42 C          60.5735   87.0421    8.2113 C.ar    1  UNL1       -0.0003
     43 C          60.5215   85.7284    7.4893 C.ar    1  UNL1       -0.0000
     44 C          61.7117   84.8157    7.5063 C.ar    1  UNL1       -0.0000
     45 C          62.9539   85.2167    8.2452 C.ar    1  UNL1       -0.0000
     46 C          63.0059   86.5305    8.9672 C.ar    1  UNL1       -0.0003
     47 C          61.8157   87.4431    8.9503 C.ar    1  UNL1       -0.0039
@<TRIPOS>BOND
     1    22    23    1
     2    23    24    1
     3    23    25    1
     4    23    21    1
     5    21    17    1
     6    17    18    2
     7    17    19   am
     8    19    16    1
     9    16    15    1
    10    15    14    1
    11    14     1    1
    12     1    37    1
    13    37    38    1
    14    38    39   ar
    15    39    40   ar
    16    40    41   ar
    17    41    42   ar
    18    42    43   ar
    19    43    44   ar
    20    44    45   ar
    21    45    46   ar
    22    46    47   ar
    23     1     2    1
    24     2     3    2
    25     2     4   am
    26     4     6    1
    27     6     7    1
    28     7     8    1
    29     8     9   ar
    30     9    10   ar
    31    10    11   ar
    32    11    12   ar
    33    12    13   ar
    34    16    26    1
    35    26    27    1
    36    27    28   ar
    37    28    29   ar
    38    29    30   ar
    39    30    31   ar
    40    31    32   ar
    41    32    33   ar
    42    33    34   ar
    43    34    35   ar
    44    35    36   ar
    45    47    38   ar
    46    13     8   ar
    47    36    27   ar
    48    47    42   ar
    49    36    31   ar
    50    19    20    1
    51     4     5    1
@<TRIPOS>MOLECULE
*****
 47 51 0 0 0
SMALL
GASTEIGER

@<TRIPOS>ATOM
      1 C          62.1889   89.4834   11.5501 C.3     1  UNL1        0.1281
      2 C          62.6612   89.1692   12.9388 C.2     1  UNL1        0.2325
      3 O          62.0476   89.8681   14.1157 O.2     1  UNL1       -0.2742
      4 N          63.7470   88.1561   13.1504 N.am    1  UNL1       -0.3033
      5 H          64.1497   87.6974   12.3780 H       1  UNL1        0.1495
      6 C          64.2192   87.8420   14.5391 C.3     1  UNL1        0.0941
      7 C          64.8291   86.5049   14.8393 C.3     1  UNL1        0.0492
      8 C          64.0362   85.2515   14.6151 C.ar    1  UNL1       -0.0013
      9 C          64.2501   84.4411   13.3711 C.ar    1  UNL1       -0.0011
     10 C          63.4572   83.1877   13.1470 C.ar    1  UNL1        0.0204
     11 C          62.4505   82.7446   14.1668 C.ar    1  UNL1        0.0989
     12 N          62.2366   83.5550   15.4108 N.ar    1  UNL1       -0.2426
     13 C          63.0295   84.8084   15.6350 C.ar    1  UNL1        0.0946
     14 S          63.1089   90.1657   10.5815 S.3     1  UNL1       -0.1298
     15 C          63.4314   91.6207   10.7512 C.3     1  UNL1        0.0780
     16 C          64.6288   92.0348   11.5541 C.3     1  UNL1        0.0899
     17 C          66.5635   93.5068   10.6373 C.2     1  UNL1        0.4014
     18 O          67.2675   92.2763   10.1472 O.2     1  UNL1       -0.2264
     19 N          65.2441   93.3861   11.3408 N.am    1  UNL1       -0.2711
     20 H          64.7820   94.1937   11.6624 H       1  UNL1        0.1527
     21 O          67.1788   94.8581   10.4240 O.3     1  UNL1       -0.4419
     22 C          65.9094   96.5565   10.4863 C.3     1  UNL1        0.0437
     23 C          66.6038   95.7907    9.3995 C.3     1  UNL1        0.1378
     24 C          67.2983   95.0249    8.3127 C.3     1  UNL1        0.0437
     25 C          66.0289   96.7233    8.3750 C.3     1  UNL1        0.0437
     26 C          65.2111   91.0975   12.5703 C.3     1  UNL1        0.0469
     27 C          65.3917   91.5483   13.9896 C.ar    1  UNL1       -0.0205
     28 C          64.2178   91.5750   14.9231 C.ar    1  UNL1       -0.0042
     29 C          64.3984   92.0257   16.3423 C.ar    1  UNL1       -0.0003
     30 C          65.7528   92.4497   16.8280 C.ar    1  UNL1       -0.0000
     31 C          66.9266   92.4230   15.8945 C.ar    1  UNL1       -0.0003
     32 C          68.2809   92.8470   16.3802 C.ar    1  UNL1       -0.0000
     33 C          69.4548   92.8203   15.4466 C.ar    1  UNL1       -0.0000
     34 C          69.2742   92.3696   14.0274 C.ar    1  UNL1       -0.0000
     35 C          67.9198   91.9455   13.5417 C.ar    1  UNL1       -0.0003
     36 C          66.7460   91.9723   14.4753 C.ar    1  UNL1       -0.0039
     37 C          60.7968   89.1153   11.1301 C.3     1  UNL1        0.0463
     38 C          60.5590   88.4909    9.7872 C.ar    1  UNL1       -0.0208
     39 C          59.6412   89.1542    8.8035 C.ar    1  UNL1       -0.0042
     40 C          59.4033   88.5297    7.4606 C.ar    1  UNL1       -0.0003
     41 C          60.0833   87.2419    7.1013 C.ar    1  UNL1       -0.0000
     42 C          61.0011   86.5785    8.0850 C.ar    1  UNL1       -0.0003
     43 C          61.6811   85.2907    7.7257 C.ar    1  UNL1       -0.0000
     44 C          62.5989   84.6273    8.7093 C.ar    1  UNL1       -0.0000
     45 C          62.8367   85.2518   10.0523 C.ar    1  UNL1       -0.0000
     46 C          62.1568   86.5396   10.4116 C.ar    1  UNL1       -0.0003
     47 C          61.2390   87.2030    9.4279 C.ar    1  UNL1       -0.0039
@<TRIPOS>BOND
     1    22    23    1
     2    23    24    1
     3    23    25    1
     4    23    21    1
     5    21    17    1
     6    17    18    2
     7    17    19   am
     8    19    16    1
     9    16    15    1
    10    15    14    1
    11    14     1    1
    12     1    37    1
    13    37    38    1
    14    38    39   ar
    15    39    40   ar
    16    40    41   ar
    17    41    42   ar
    18    42    43   ar
    19    43    44   ar
    20    44    45   ar
    21    45    46   ar
    22    46    47   ar
    23     1     2    1
    24     2     3    2
    25     2     4   am
    26     4     6    1
    27     6     7    1
    28     7     8    1
    29     8     9   ar
    30     9    10   ar
    31    10    11   ar
    32    11    12   ar
    33    12    13   ar
    34    16    26    1
    35    26    27    1
    36    27    28   ar
    37    28    29   ar
    38    29    30   ar
    39    30    31   ar
    40    31    32   ar
    41    32    33   ar
    42    33    34   ar
    43    34    35   ar
    44    35    36   ar
    45    47    38   ar
    46    13     8   ar
    47    36    27   ar
    48    47    42   ar
    49    36    31   ar
    50    19    20    1
    51     4     5    1
@<TRIPOS>MOLECULE
*****
 47 51 0 0 0
SMALL
GASTEIGER

@<TRIPOS>ATOM
      1 C          61.8677   88.9658   11.2207 C.3     1  UNL1        0.1281
      2 C          61.5690   87.5840   11.7221 C.2     1  UNL1        0.2325
      3 O          60.1476   87.1527   11.9306 O.2     1  UNL1       -0.2742
      4 N          62.6919   86.6334   12.0150 N.am    1  UNL1       -0.3033
      5 H          63.6248   86.9165   11.8781 H       1  UNL1        0.1495
      6 C          62.3932   85.2516   12.5164 C.3     1  UNL1        0.0941
      7 C          62.7799   84.0564   11.6966 C.3     1  UNL1        0.0492
      8 C          62.5796   82.6745   12.2446 C.ar    1  UNL1       -0.0013
      9 C          61.9291   82.4854   13.5829 C.ar    1  UNL1       -0.0011
     10 C          61.7289   81.1035   14.1308 C.ar    1  UNL1        0.0204
     11 C          62.1791   79.9107   13.3405 C.ar    1  UNL1        0.0989
     12 N          62.8295   80.0999   12.0022 N.ar    1  UNL1       -0.2426
     13 C          63.0298   81.4818   11.4543 C.ar    1  UNL1        0.0946
     14 S          62.1755   90.0661   12.1927 S.3     1  UNL1       -0.1298
     15 C          62.7309   89.7371   13.5466 C.3     1  UNL1        0.0780
     16 C          64.1941   89.9195   13.8216 C.3     1  UNL1        0.0899
     17 C          65.5481   92.1344   13.7162 C.2     1  UNL1        0.4014
     18 O          65.3187   92.3445   15.1836 O.2     1  UNL1       -0.2264
     19 N          64.9858   90.9219   13.0352 N.am    1  UNL1       -0.2711
     20 H          65.1364   90.7840   12.0721 H       1  UNL1        0.1527
     21 O          66.3398   93.1368   12.9298 O.3     1  UNL1       -0.4419
     22 C          67.9912   91.9461   12.3341 C.3     1  UNL1        0.0437
     23 C          66.9472   92.7476   11.6147 C.3     1  UNL1        0.1378
     24 C          65.9032   93.5492   10.8953 C.3     1  UNL1        0.0437
     25 C          67.5546   92.3584   10.2996 C.3     1  UNL1        0.0437
     26 C          64.8657   89.0995   14.8830 C.3     1  UNL1        0.0469
     27 C          64.0607   88.1468   15.7163 C.ar    1  UNL1       -0.0205
     28 C          63.1022   88.6739   16.7429 C.ar    1  UNL1       -0.0042
     29 C          62.2972   87.7212   17.5762 C.ar    1  UNL1       -0.0003
     30 C          62.4506   86.2416   17.3830 C.ar    1  UNL1       -0.0000
     31 C          63.4090   85.7147   16.3565 C.ar    1  UNL1       -0.0003
     32 C          63.5624   84.2351   16.1633 C.ar    1  UNL1       -0.0000
     33 C          64.5208   83.7081   15.1367 C.ar    1  UNL1       -0.0000
     34 C          65.3259   84.6607   14.3034 C.ar    1  UNL1       -0.0000
     35 C          65.1725   86.1404   14.4967 C.ar    1  UNL1       -0.0003
     36 C          64.2140   86.6673   15.5231 C.ar    1  UNL1       -0.0039
     37 C          61.8585   89.2473    9.7474 C.3     1  UNL1        0.0463
     38 C          60.9808   88.4424    8.8354 C.ar    1  UNL1       -0.0208
     39 C          59.6513   88.9853    8.4022 C.ar    1  UNL1       -0.0042
     40 C          58.7736   88.1804    7.4903 C.ar    1  UNL1       -0.0003
     41 C          59.2254   86.8325    7.0115 C.ar    1  UNL1       -0.0000
     42 C          60.5549   86.2896    7.4447 C.ar    1  UNL1       -0.0003
     43 C          61.0067   84.9418    6.9659 C.ar    1  UNL1       -0.0000
     44 C          62.3361   84.3989    7.3991 C.ar    1  UNL1       -0.0000
     45 C          63.2139   85.2038    8.3111 C.ar    1  UNL1       -0.0000
     46 C          62.7621   86.5516    8.7899 C.ar    1  UNL1       -0.0003
     47 C          61.4326   87.0945    8.3567 C.ar    1  UNL1       -0.0039
@<TRIPOS>BOND
     1    22    23    1
     2    23    24    1
     3    23    25    1
     4    23    21    1
     5    21    17    1
     6    17    18    2
     7    17    19   am
     8    19    16    1
     9    16    15    1
    10    15    14    1
    11    14     1    1
    12     1    37    1
    13    37    38    1
    14    38    39   ar
    15    39    40   ar
    16    40    41   ar
    17    41    42   ar
    18    42    43   ar
    19    43    44   ar
    20    44    45   ar
    21    45    46   ar
    22    46    47   ar
    23     1     2    1
    24     2     3    2
    25     2     4   am
    26     4     6    1
    27     6     7    1
    28     7     8    1
    29     8     9   ar
    30     9    10   ar
    31    10    11   ar
    32    11    12   ar
    33    12    13   ar
    34    16    26    1
    35    26    27    1
    36    27    28   ar
    37    28    29   ar
    38    29    30   ar
    39    30    31   ar
    40    31    32   ar
    41    32    33   ar
    42    33    34   ar
    43    34    35   ar
    44    35    36   ar
    45    47    38   ar
    46    13     8   ar
    47    36    27   ar
    48    47    42   ar
    49    36    31   ar
    50    19    20    1
    51     4     5    1
@<TRIPOS>MOLECULE
*****
 47 51 0 0 0
SMALL
GASTEIGER

@<TRIPOS>ATOM
      1 C          62.1878   89.1314   11.2408 C.3     1  UNL1        0.1281
      2 C          60.8910   88.6218   10.6851 C.2     1  UNL1        0.2325
      3 O          59.8681   88.0183   11.6012 O.2     1  UNL1       -0.2742
      4 N          60.6173   88.7157    9.2132 N.am    1  UNL1       -0.3033
      5 H          61.2888   89.1118    8.6120 H       1  UNL1        0.1495
      6 C          59.3206   88.2061    8.6575 C.3     1  UNL1        0.0941
      7 C          59.1770   86.7573    8.2968 C.3     1  UNL1        0.0492
      8 C          60.3626   85.9886    7.7933 C.ar    1  UNL1       -0.0013
      9 C          61.6695   86.0608    8.5260 C.ar    1  UNL1       -0.0011
     10 C          62.8551   85.2922    8.0225 C.ar    1  UNL1        0.0204
     11 C          62.7338   84.4513    6.7863 C.ar    1  UNL1        0.0989
     12 N          61.4270   84.3792    6.0536 N.ar    1  UNL1       -0.2426
     13 C          60.2414   85.1478    6.5571 C.ar    1  UNL1        0.0946
     14 S          62.3339   90.5819   11.5941 S.3     1  UNL1       -0.1298
     15 C          63.3859   91.4148   10.9236 C.3     1  UNL1        0.0780
     16 C          64.5667   91.9053   11.7079 C.3     1  UNL1        0.0899
     17 C          66.4304   93.4419   10.7511 C.2     1  UNL1        0.4014
     18 O          67.1943   92.2332   10.2979 O.2     1  UNL1       -0.2264
     19 N          65.1165   93.2780   11.4561 N.am    1  UNL1       -0.2711
     20 H          64.6151   94.0713   11.7536 H       1  UNL1        0.1527
     21 O          66.9802   94.8146   10.4993 O.3     1  UNL1       -0.4419
     22 C          67.6356   94.7349    8.4834 C.3     1  UNL1        0.0437
     23 C          66.6244   95.5454    9.2386 C.3     1  UNL1        0.1378
     24 C          65.6132   96.3560    9.9939 C.3     1  UNL1        0.0437
     25 C          66.2686   96.2762    7.9780 C.3     1  UNL1        0.0437
     26 C          65.1977   91.0231   12.7441 C.3     1  UNL1        0.0469
     27 C          65.3156   91.4977   14.1622 C.ar    1  UNL1       -0.0205
     28 C          64.1191   91.4644   15.0662 C.ar    1  UNL1       -0.0042
     29 C          64.2371   91.9391   16.4842 C.ar    1  UNL1       -0.0003
     30 C          65.5516   92.4471   16.9982 C.ar    1  UNL1       -0.0000
     31 C          66.7480   92.4804   16.0941 C.ar    1  UNL1       -0.0003
     32 C          68.0624   92.9884   16.6081 C.ar    1  UNL1       -0.0000
     33 C          69.2590   93.0218   15.7040 C.ar    1  UNL1       -0.0000
     34 C          69.1410   92.5471   14.2860 C.ar    1  UNL1       -0.0000
     35 C          67.8265   92.0391   13.7721 C.ar    1  UNL1       -0.0003
     36 C          66.6301   92.0058   14.6761 C.ar    1  UNL1       -0.0039
     37 C          63.3383   88.1906   11.4433 C.3     1  UNL1        0.0463
     38 C          63.5138   87.4927   12.7594 C.ar    1  UNL1       -0.0208
     39 C          63.9421   88.2695   13.9690 C.ar    1  UNL1       -0.0042
     40 C          64.1176   87.5716   15.2851 C.ar    1  UNL1       -0.0003
     41 C          63.8648   86.0969   15.3916 C.ar    1  UNL1       -0.0000
     42 C          63.4366   85.3201   14.1820 C.ar    1  UNL1       -0.0003
     43 C          63.1839   83.8454   14.2885 C.ar    1  UNL1       -0.0000
     44 C          62.7556   83.0686   13.0789 C.ar    1  UNL1       -0.0000
     45 C          62.5801   83.7665   11.7628 C.ar    1  UNL1       -0.0000
     46 C          62.8328   85.2411   11.6563 C.ar    1  UNL1       -0.0003
     47 C          63.2611   86.0179   12.8659 C.ar    1  UNL1       -0.0039
@<TRIPOS>BOND
     1    22    23    1
     2    23    24    1
     3    23    25    1
     4    23    21    1
     5    21    17    1
     6    17    18    2
     7    17    19   am
     8    19    16    1
     9    16    15    1
    10    15    14    1
    11    14     1    1
    12     1    37    1
    13    37    38    1
    14    38    39   ar
    15    39    40   ar
    16    40    41   ar
    17    41    42   ar
    18    42    43   ar
    19    43    44   ar
    20    44    45   ar
    21    45    46   ar
    22    46    47   ar
    23     1     2    1
    24     2     3    2
    25     2     4   am
    26     4     6    1
    27     6     7    1
    28     7     8    1
    29     8     9   ar
    30     9    10   ar
    31    10    11   ar
    32    11    12   ar
    33    12    13   ar
    34    16    26    1
    35    26    27    1
    36    27    28   ar
    37    28    29   ar
    38    29    30   ar
    39    30    31   ar
    40    31    32   ar
    41    32    33   ar
    42    33    34   ar
    43    34    35   ar
    44    35    36   ar
    45    47    38   ar
    46    13     8   ar
    47    36    27   ar
    48    47    42   ar
    49    36    31   ar
    50    19    20    1
    51     4     5    1
