@<TRIPOS>MOLECULE
*****
 31 34 0 0 0
SMALL
GASTEIGER

@<TRIPOS>ATOM
      1 C          62.9431   84.4786    7.5746 C.3     1  UNL1        0.2160
      2 N          63.0122   84.6433    9.0639 N.am    1  UNL1       -0.1416
      3 C          62.5938   85.8587    9.8368 C.2     1  UNL1        0.3314
      4 O          62.0330   87.1230    9.2562 O.2     1  UNL1       -0.2520
      5 C          62.8348   85.5880   11.2924 C.3     1  UNL1        0.2669
      6 N          63.4021   84.2052   11.4190 N.2     1  UNL1       -0.0890
      7 C          63.5117   83.6213   10.0416 C.2     1  UNL1        0.3741
      8 N          64.0298   82.2553    9.7018 N.pl3   1  UNL1       -0.2512
      9 H          64.3368   81.6531   10.4176 H       1  UNL1        0.2412
     10 H          64.0629   81.9609    8.7629 H       1  UNL1        0.2412
     11 C          62.9628   85.6073   12.7868 C.ar    1  UNL1        0.0275
     12 C          62.1564   84.6565   13.6209 C.ar    1  UNL1        0.0029
     13 C          62.2844   84.6758   15.1153 C.ar    1  UNL1        0.0369
     14 C          63.2187   85.6459   15.7756 C.ar    1  UNL1        0.1443
     15 C          64.0251   86.5966   14.9415 C.ar    1  UNL1        0.0369
     16 C          63.8971   86.5773   13.4471 C.ar    1  UNL1        0.0029
     17 O          63.3467   85.6651   17.2701 O.3     1  UNL1       -0.4236
     18 C          62.9600   86.8929   18.0401 C.3     1  UNL1        0.5087
     19 F          62.6922   86.8009   19.5132 F       1  UNL1       -0.1550
     20 F          62.8411   88.2126   17.3372 F       1  UNL1       -0.1550
     21 C          62.2943   86.9749   11.4782 C.ar    1  UNL1        0.0279
     22 C          60.8145   87.2155   11.4320 C.ar    1  UNL1       -0.0002
     23 C          60.2739   88.6023   11.6179 C.ar    1  UNL1        0.0004
     24 C          61.2132   89.7486   11.8500 C.ar    1  UNL1        0.0082
     25 C          62.6931   89.5080   11.8962 C.ar    1  UNL1        0.0415
     26 C          63.2336   88.1211   11.7103 C.ar    1  UNL1        0.0080
     27 C          63.6323   90.6541   12.1282 C.1     1  UNL1       -0.0644
     28 C          64.5717   91.8003   12.3603 C.1     1  UNL1       -0.0874
     29 C          65.5110   92.9466   12.5924 C.3     1  UNL1        0.0645
     30 C          66.4641   93.6848   13.4850 C.3     1  UNL1        0.0140
     31 C          66.1849   94.1936   12.1018 C.3     1  UNL1        0.0140
@<TRIPOS>BOND
     1     1     2    1
     2     2     3   am
     3     3     4    2
     4     3     5    1
     5     5    11    1
     6    11    12   ar
     7    12    13   ar
     8    13    14   ar
     9    14    17    1
    10    17    18    1
    11    18    19    1
    12    18    20    1
    13    14    15   ar
    14    15    16   ar
    15     5    21    1
    16    21    22   ar
    17    22    23   ar
    18    23    24   ar
    19    24    25   ar
    20    25    27    1
    21    27    28    3
    22    28    29    1
    23    29    30    1
    24    30    31    1
    25    25    26   ar
    26     5     6    1
    27     6     7    2
    28     7     8    1
    29     7     2    1
    30    16    11   ar
    31    26    21   ar
    32    31    29    1
    33     8     9    1
    34     8    10    1
@<TRIPOS>MOLECULE
*****
 31 34 0 0 0
SMALL
GASTEIGER

@<TRIPOS>ATOM
      1 C          59.0860   88.6769    6.9507 C.3     1  UNL1        0.2160
      2 N          59.8795   87.9756    8.0129 N.am    1  UNL1       -0.1416
      3 C          60.5680   88.6286    9.1746 C.2     1  UNL1        0.3314
      4 O          60.5838   90.0976    9.4781 O.2     1  UNL1       -0.2520
      5 C          61.2379   87.5548    9.9797 C.3     1  UNL1        0.2669
      6 N          60.9635   86.2382    9.3155 N.2     1  UNL1       -0.0890
      7 C          60.1239   86.4983    8.1000 C.2     1  UNL1        0.3741
      8 N          59.6177   85.4628    7.1400 N.pl3   1  UNL1       -0.2512
      9 H          59.8324   84.5126    7.2826 H       1  UNL1        0.2412
     10 H          59.0708   85.7333    6.3674 H       1  UNL1        0.2412
     11 C          61.9985   86.7197   10.9668 C.ar    1  UNL1        0.0275
     12 C          62.8716   87.3800   11.9923 C.ar    1  UNL1        0.0029
     13 C          63.6321   86.5449   12.9794 C.ar    1  UNL1        0.0369
     14 C          63.5195   85.0496   12.9409 C.ar    1  UNL1        0.1443
     15 C          62.6464   84.3894   11.9153 C.ar    1  UNL1        0.0369
     16 C          61.8859   85.2245   10.9283 C.ar    1  UNL1        0.0029
     17 O          64.2800   84.2146   13.9280 O.3     1  UNL1       -0.4236
     18 C          63.5851   83.1119   14.6703 C.3     1  UNL1        0.5087
     19 F          62.6738   83.4375   15.8164 F       1  UNL1       -0.1550
     20 F          63.8015   81.6835   14.2665 F       1  UNL1       -0.1550
     21 C          61.6713   88.6969   10.8502 C.ar    1  UNL1        0.0279
     22 C          60.9675   88.9593   12.1486 C.ar    1  UNL1       -0.0002
     23 C          61.4009   90.1014   13.0192 C.ar    1  UNL1        0.0004
     24 C          62.5382   90.9810   12.5914 C.ar    1  UNL1        0.0082
     25 C          63.2420   90.7185   11.2931 C.ar    1  UNL1        0.0415
     26 C          62.8086   89.5764   10.4225 C.ar    1  UNL1        0.0080
     27 C          64.3793   91.5980   10.8653 C.1     1  UNL1       -0.0644
     28 C          65.5166   92.4776   10.4376 C.1     1  UNL1       -0.0874
     29 C          66.6539   93.3571   10.0098 C.3     1  UNL1        0.0645
     30 C          67.9889   93.5236    9.3465 C.3     1  UNL1        0.0140
     31 C          67.2886   94.7139    9.9321 C.3     1  UNL1        0.0140
@<TRIPOS>BOND
     1     1     2    1
     2     2     3   am
     3     3     4    2
     4     3     5    1
     5     5    11    1
     6    11    12   ar
     7    12    13   ar
     8    13    14   ar
     9    14    17    1
    10    17    18    1
    11    18    19    1
    12    18    20    1
    13    14    15   ar
    14    15    16   ar
    15     5    21    1
    16    21    22   ar
    17    22    23   ar
    18    23    24   ar
    19    24    25   ar
    20    25    27    1
    21    27    28    3
    22    28    29    1
    23    29    30    1
    24    30    31    1
    25    25    26   ar
    26     5     6    1
    27     6     7    2
    28     7     8    1
    29     7     2    1
    30    16    11   ar
    31    26    21   ar
    32    31    29    1
    33     8     9    1
    34     8    10    1
@<TRIPOS>MOLECULE
*****
 31 34 0 0 0
SMALL
GASTEIGER

@<TRIPOS>ATOM
      1 C          64.2597   85.9393   15.2607 C.3     1  UNL1        0.2160
      2 N          63.7395   85.7989   13.8608 N.am    1  UNL1       -0.1416
      3 C          63.1317   86.8918   13.0324 C.2     1  UNL1        0.3314
      4 O          62.9373   88.3168   13.4585 O.2     1  UNL1       -0.2520
      5 C          62.7523   86.3094   11.7032 C.3     1  UNL1        0.2669
      6 N          63.1257   84.8566   11.7100 N.2     1  UNL1       -0.0890
      7 C          63.7358   84.5411   13.0436 C.2     1  UNL1        0.3741
      8 N          64.2517   83.2029   13.4827 N.pl3   1  UNL1       -0.2512
      9 H          64.2054   82.4326   12.8713 H       1  UNL1        0.2412
     10 H          64.6366   83.0947   14.3824 H       1  UNL1        0.2412
     11 C          62.2740   86.0180   10.3116 C.ar    1  UNL1        0.0275
     12 C          63.2222   85.4542    9.2953 C.ar    1  UNL1        0.0029
     13 C          62.7438   85.1629    7.9038 C.ar    1  UNL1        0.0369
     14 C          61.3172   85.4353    7.5287 C.ar    1  UNL1        0.1443
     15 C          60.3690   85.9990    8.5450 C.ar    1  UNL1        0.0369
     16 C          60.8474   86.2904    9.9365 C.ar    1  UNL1        0.0029
     17 O          60.8389   85.1439    6.1371 O.3     1  UNL1       -0.4236
     18 C          61.7427   84.4467    5.1640 C.3     1  UNL1        0.5087
     19 F          63.1471   84.0999    5.5607 F       1  UNL1       -0.1550
     20 F          61.2421   84.0964    3.7940 F       1  UNL1       -0.1550
     21 C          62.2789   87.7012   11.4054 C.ar    1  UNL1        0.0279
     22 C          60.8110   87.9835   11.2807 C.ar    1  UNL1       -0.0002
     23 C          60.3375   89.3754   10.9829 C.ar    1  UNL1        0.0004
     24 C          61.3320   90.4849   10.8098 C.ar    1  UNL1        0.0082
     25 C          62.7999   90.2026   10.9344 C.ar    1  UNL1        0.0415
     26 C          63.2734   88.8107   11.2322 C.ar    1  UNL1        0.0080
     27 C          63.7944   91.3120   10.7613 C.1     1  UNL1       -0.0644
     28 C          64.7889   92.4216   10.5881 C.1     1  UNL1       -0.0874
     29 C          65.7834   93.5311   10.4149 C.3     1  UNL1        0.0645
     30 C          66.9724   94.1112    9.7080 C.3     1  UNL1        0.0140
     31 C          66.3169   94.8726   10.8219 C.3     1  UNL1        0.0140
@<TRIPOS>BOND
     1     1     2    1
     2     2     3   am
     3     3     4    2
     4     3     5    1
     5     5    11    1
     6    11    12   ar
     7    12    13   ar
     8    13    14   ar
     9    14    17    1
    10    17    18    1
    11    18    19    1
    12    18    20    1
    13    14    15   ar
    14    15    16   ar
    15     5    21    1
    16    21    22   ar
    17    22    23   ar
    18    23    24   ar
    19    24    25   ar
    20    25    27    1
    21    27    28    3
    22    28    29    1
    23    29    30    1
    24    30    31    1
    25    25    26   ar
    26     5     6    1
    27     6     7    2
    28     7     8    1
    29     7     2    1
    30    16    11   ar
    31    26    21   ar
    32    31    29    1
    33     8     9    1
    34     8    10    1
@<TRIPOS>MOLECULE
*****
 31 34 0 0 0
SMALL
GASTEIGER

@<TRIPOS>ATOM
      1 C          64.1305   84.6128   13.3491 C.3     1  UNL1        0.2160
      2 N          63.2854   85.2321   12.2756 N.am    1  UNL1       -0.1416
      3 C          62.9284   86.6845   12.1626 C.2     1  UNL1        0.3314
      4 O          63.3538   87.7728   13.1031 O.2     1  UNL1       -0.2520
      5 C          62.0713   86.8577   10.9438 C.3     1  UNL1        0.2669
      6 N          61.8986   85.5122   10.3036 N.2     1  UNL1       -0.0890
      7 C          62.6490   84.5075   11.1268 C.2     1  UNL1        0.3741
      8 N          62.7459   83.0365   10.8496 N.pl3   1  UNL1       -0.2512
      9 H          62.2905   82.6522   10.0660 H       1  UNL1        0.2412
     10 H          63.2649   82.4554   11.4514 H       1  UNL1        0.2412
     11 C          61.2127   87.3329    9.8093 C.ar    1  UNL1        0.0275
     12 C          60.4519   86.3425    8.9786 C.ar    1  UNL1        0.0029
     13 C          59.5934   86.8178    7.8441 C.ar    1  UNL1        0.0369
     14 C          59.4957   88.2834    7.5403 C.ar    1  UNL1        0.1443
     15 C          60.2566   89.2738    8.3711 C.ar    1  UNL1        0.0369
     16 C          61.1151   88.7986    9.5055 C.ar    1  UNL1        0.0029
     17 O          58.6372   88.7587    6.4058 O.3     1  UNL1       -0.4236
     18 C          58.9010   90.0930    5.7735 C.3     1  UNL1        0.5087
     19 F          60.2906   90.4564    5.3410 F       1  UNL1       -0.1550
     20 F          57.7753   91.0640    5.5736 F       1  UNL1       -0.1550
     21 C          62.0645   88.3025   11.3468 C.ar    1  UNL1        0.0279
     22 C          60.9331   88.8469   12.1674 C.ar    1  UNL1       -0.0002
     23 C          60.9262   90.2918   12.5705 C.ar    1  UNL1        0.0004
     24 C          62.0508   91.1922   12.1528 C.ar    1  UNL1        0.0082
     25 C          63.1823   90.6478   11.3321 C.ar    1  UNL1        0.0415
     26 C          63.1891   89.2029   10.9291 C.ar    1  UNL1        0.0080
     27 C          64.3068   91.5482   10.9145 C.1     1  UNL1       -0.0644
     28 C          65.4315   92.4487   10.4968 C.1     1  UNL1       -0.0874
     29 C          66.5561   93.3491   10.0791 C.3     1  UNL1        0.0645
     30 C          67.8949   93.5399    9.4301 C.3     1  UNL1        0.0140
     31 C          67.1652   94.7178   10.0047 C.3     1  UNL1        0.0140
@<TRIPOS>BOND
     1     1     2    1
     2     2     3   am
     3     3     4    2
     4     3     5    1
     5     5    11    1
     6    11    12   ar
     7    12    13   ar
     8    13    14   ar
     9    14    17    1
    10    17    18    1
    11    18    19    1
    12    18    20    1
    13    14    15   ar
    14    15    16   ar
    15     5    21    1
    16    21    22   ar
    17    22    23   ar
    18    23    24   ar
    19    24    25   ar
    20    25    27    1
    21    27    28    3
    22    28    29    1
    23    29    30    1
    24    30    31    1
    25    25    26   ar
    26     5     6    1
    27     6     7    2
    28     7     8    1
    29     7     2    1
    30    16    11   ar
    31    26    21   ar
    32    31    29    1
    33     8     9    1
    34     8    10    1
@<TRIPOS>MOLECULE
*****
 31 34 0 0 0
SMALL
GASTEIGER

@<TRIPOS>ATOM
      1 C          64.2211   83.9819   12.6128 C.3     1  UNL1        0.2160
      2 N          63.3734   84.7396   11.6344 N.am    1  UNL1       -0.1416
      3 C          62.8076   86.1139   11.8372 C.2     1  UNL1        0.3314
      4 O          62.9903   86.9719   13.0540 O.2     1  UNL1       -0.2520
      5 C          62.0271   86.4796   10.6096 C.3     1  UNL1        0.2669
      6 N          62.1104   85.3313    9.6482 N.2     1  UNL1       -0.0890
      7 C          62.9425   84.2558   10.2816 C.2     1  UNL1        0.3741
      8 N          63.2837   82.9296    9.6695 N.pl3   1  UNL1       -0.2512
      9 H          62.9521   82.7022    8.7709 H       1  UNL1        0.2412
     10 H          63.8394   82.2865   10.1664 H       1  UNL1        0.2412
     11 C          61.1926   87.1131    9.5361 C.ar    1  UNL1        0.0275
     12 C          61.2676   88.5929    9.3032 C.ar    1  UNL1        0.0029
     13 C          60.4331   89.2264    8.2297 C.ar    1  UNL1        0.0369
     14 C          59.5237   88.3799    7.3891 C.ar    1  UNL1        0.1443
     15 C          59.4487   86.9001    7.6221 C.ar    1  UNL1        0.0369
     16 C          60.2832   86.2666    8.6956 C.ar    1  UNL1        0.0029
     17 O          58.6892   89.0134    6.3156 O.3     1  UNL1       -0.4236
     18 C          59.0966   90.3327    5.7295 C.3     1  UNL1        0.5087
     19 F          58.0907   91.4378    5.5983 F       1  UNL1       -0.1550
     20 F          60.5098   90.5470    5.2747 F       1  UNL1       -0.1550
     21 C          61.7693   87.7603   11.3467 C.ar    1  UNL1        0.0279
     22 C          60.3626   88.1720   11.6656 C.ar    1  UNL1       -0.0002
     23 C          60.1047   89.4528   12.4027 C.ar    1  UNL1        0.0004
     24 C          61.2536   90.3219   12.8207 C.ar    1  UNL1        0.0082
     25 C          62.6603   89.9102   12.5018 C.ar    1  UNL1        0.0415
     26 C          62.9182   88.6294   11.7647 C.ar    1  UNL1        0.0080
     27 C          63.8091   90.7793   12.9198 C.1     1  UNL1       -0.0644
     28 C          64.9580   91.6484   13.3378 C.1     1  UNL1       -0.0874
     29 C          66.1069   92.5175   13.7559 C.3     1  UNL1        0.0645
     30 C          66.6574   93.8734   14.0851 C.3     1  UNL1        0.0140
     31 C          67.5462   92.6669   14.1507 C.3     1  UNL1        0.0140
@<TRIPOS>BOND
     1     1     2    1
     2     2     3   am
     3     3     4    2
     4     3     5    1
     5     5    11    1
     6    11    12   ar
     7    12    13   ar
     8    13    14   ar
     9    14    17    1
    10    17    18    1
    11    18    19    1
    12    18    20    1
    13    14    15   ar
    14    15    16   ar
    15     5    21    1
    16    21    22   ar
    17    22    23   ar
    18    23    24   ar
    19    24    25   ar
    20    25    27    1
    21    27    28    3
    22    28    29    1
    23    29    30    1
    24    30    31    1
    25    25    26   ar
    26     5     6    1
    27     6     7    2
    28     7     8    1
    29     7     2    1
    30    16    11   ar
    31    26    21   ar
    32    31    29    1
    33     8     9    1
    34     8    10    1
@<TRIPOS>MOLECULE
*****
 31 34 0 0 0
SMALL
GASTEIGER

@<TRIPOS>ATOM
      1 C          64.8534   84.8042   15.0100 C.3     1  UNL1        0.2160
      2 N          64.0814   85.6019   14.0013 N.am    1  UNL1       -0.1416
      3 C          64.0261   87.0984   13.9160 C.2     1  UNL1        0.3314
      4 O          64.7330   88.0600   14.8246 O.2     1  UNL1       -0.2520
      5 C          63.1396   87.4645   12.7627 C.3     1  UNL1        0.2669
      6 N          62.6471   86.1942   12.1352 N.2     1  UNL1       -0.0890
      7 C          63.2292   85.0430   12.9007 C.2     1  UNL1        0.3741
      8 N          62.9993   83.5884   12.6156 N.pl3   1  UNL1       -0.2512
      9 H          62.4200   83.3191   11.8665 H       1  UNL1        0.2412
     10 H          63.4278   82.9029   13.1776 H       1  UNL1        0.2412
     11 C          62.3203   88.1250   11.6938 C.ar    1  UNL1        0.0275
     12 C          61.4566   89.3039   12.0319 C.ar    1  UNL1        0.0029
     13 C          60.6373   89.9644   10.9630 C.ar    1  UNL1        0.0369
     14 C          60.6818   89.4461    9.5561 C.ar    1  UNL1        0.1443
     15 C          61.5455   88.2673    9.2181 C.ar    1  UNL1        0.0369
     16 C          62.3647   87.6067   10.2869 C.ar    1  UNL1        0.0029
     17 O          59.8624   90.1067    8.4873 O.3     1  UNL1       -0.4236
     18 C          59.4078   89.3175    7.2955 C.3     1  UNL1        0.5087
     19 F          58.6759   88.0224    7.4883 F       1  UNL1       -0.1550
     20 F          59.6851   89.8233    5.9108 F       1  UNL1       -0.1550
     21 C          63.4608   88.8728   13.1668 C.ar    1  UNL1        0.0279
     22 C          63.0608   89.3738   14.5229 C.ar    1  UNL1       -0.0002
     23 C          63.3820   90.7822   14.9270 C.ar    1  UNL1        0.0004
     24 C          64.1032   91.6897   13.9750 C.ar    1  UNL1        0.0082
     25 C          64.5032   91.1888   12.6188 C.ar    1  UNL1        0.0415
     26 C          64.1820   89.7803   12.2147 C.ar    1  UNL1        0.0080
     27 C          65.2244   92.0961   11.6668 C.1     1  UNL1       -0.0644
     28 C          65.9456   93.0036   10.7148 C.1     1  UNL1       -0.0874
     29 C          66.6669   93.9111    9.7627 C.3     1  UNL1        0.0645
     30 C          67.7937   94.1565    8.8036 C.3     1  UNL1        0.0140
     31 C          66.7891   95.2374    9.0729 C.3     1  UNL1        0.0140
@<TRIPOS>BOND
     1     1     2    1
     2     2     3   am
     3     3     4    2
     4     3     5    1
     5     5    11    1
     6    11    12   ar
     7    12    13   ar
     8    13    14   ar
     9    14    17    1
    10    17    18    1
    11    18    19    1
    12    18    20    1
    13    14    15   ar
    14    15    16   ar
    15     5    21    1
    16    21    22   ar
    17    22    23   ar
    18    23    24   ar
    19    24    25   ar
    20    25    27    1
    21    27    28    3
    22    28    29    1
    23    29    30    1
    24    30    31    1
    25    25    26   ar
    26     5     6    1
    27     6     7    2
    28     7     8    1
    29     7     2    1
    30    16    11   ar
    31    26    21   ar
    32    31    29    1
    33     8     9    1
    34     8    10    1
@<TRIPOS>MOLECULE
*****
 31 34 0 0 0
SMALL
GASTEIGER

@<TRIPOS>ATOM
      1 C          62.6825   93.9538   -5.6654 C.3     1  UNL1        0.2160
      2 N          62.2343   93.8827   -4.2358 N.am    1  UNL1       -0.1416
      3 C          60.8219   94.0110   -3.7472 C.2     1  UNL1        0.3314
      4 O          59.6098   94.2330   -4.6025 O.2     1  UNL1       -0.2520
      5 C          60.8344   93.8784   -2.2531 C.3     1  UNL1        0.2669
      6 N          62.2545   93.6681   -1.8183 N.2     1  UNL1       -0.0890
      7 C          63.1197   93.6708   -3.0437 C.2     1  UNL1        0.3741
      8 N          64.6088   93.4927   -3.0720 N.pl3   1  UNL1       -0.2512
      9 H          65.1046   93.3589   -2.2321 H       1  UNL1        0.2412
     10 H          65.0904   93.5097   -3.9305 H       1  UNL1        0.2412
     11 C          60.5371   93.7858   -0.7858 C.ar    1  UNL1        0.0275
     12 C          59.7064   92.6533   -0.2589 C.ar    1  UNL1        0.0029
     13 C          59.4091   92.5607    1.2083 C.ar    1  UNL1        0.0369
     14 C          59.9424   93.6005    2.1488 C.ar    1  UNL1        0.1443
     15 C          60.7730   94.7329    1.6220 C.ar    1  UNL1        0.0369
     16 C          61.0704   94.8255    0.1547 C.ar    1  UNL1        0.0029
     17 O          59.6450   93.5078    3.6161 O.3     1  UNL1       -0.4236
     18 C          59.4558   92.1662    4.2598 C.3     1  UNL1        0.5087
     19 F          60.6428   91.4072    4.7745 F       1  UNL1       -0.1550
     20 F          58.0796   91.5836    4.3887 F       1  UNL1       -0.1550
     21 C          59.3522   94.0694   -2.3811 C.ar    1  UNL1        0.0279
     22 C          58.6963   95.2751   -1.7761 C.ar    1  UNL1       -0.0002
     23 C          57.2139   95.4660   -1.9041 C.ar    1  UNL1        0.0004
     24 C          56.3875   94.4513   -2.6371 C.ar    1  UNL1        0.0082
     25 C          57.0434   93.2456   -3.2422 C.ar    1  UNL1        0.0415
     26 C          58.5258   93.0546   -3.1142 C.ar    1  UNL1        0.0080
     27 C          56.2171   92.2309   -3.9752 C.1     1  UNL1       -0.0644
     28 C          55.3907   91.2162   -4.7083 C.1     1  UNL1       -0.0874
     29 C          54.5643   90.2014   -5.4413 C.3     1  UNL1        0.0645
     30 C          53.9236   89.7185   -6.7087 C.3     1  UNL1        0.0140
     31 C          53.7737   88.9267   -5.4436 C.3     1  UNL1        0.0140
@<TRIPOS>BOND
     1     1     2    1
     2     2     3   am
     3     3     4    2
     4     3     5    1
     5     5    11    1
     6    11    12   ar
     7    12    13   ar
     8    13    14   ar
     9    14    17    1
    10    17    18    1
    11    18    19    1
    12    18    20    1
    13    14    15   ar
    14    15    16   ar
    15     5    21    1
    16    21    22   ar
    17    22    23   ar
    18    23    24   ar
    19    24    25   ar
    20    25    27    1
    21    27    28    3
    22    28    29    1
    23    29    30    1
    24    30    31    1
    25    25    26   ar
    26     5     6    1
    27     6     7    2
    28     7     8    1
    29     7     2    1
    30    16    11   ar
    31    26    21   ar
    32    31    29    1
    33     8     9    1
    34     8    10    1
@<TRIPOS>MOLECULE
*****
 31 34 0 0 0
SMALL
GASTEIGER

@<TRIPOS>ATOM
      1 C          62.8073   84.7425   12.8142 C.3     1  UNL1        0.2160
      2 N          63.3495   86.0223   13.3783 N.am    1  UNL1       -0.1416
      3 C          63.1802   87.3892   12.7843 C.2     1  UNL1        0.3314
      4 O          62.4390   87.7163   11.5219 O.2     1  UNL1       -0.2520
      5 C          63.8823   88.3715   13.6743 C.3     1  UNL1        0.2669
      6 N          64.4854   87.6117   14.8184 N.2     1  UNL1       -0.0890
      7 C          64.1561   86.1597   14.6354 C.2     1  UNL1        0.3741
      8 N          64.5622   85.0416   15.5492 N.pl3   1  UNL1       -0.2512
      9 H          65.0945   85.2331   16.3549 H       1  UNL1        0.2412
     10 H          64.2964   84.1164   15.3431 H       1  UNL1        0.2412
     11 C          64.4845   89.5649   14.3549 C.ar    1  UNL1        0.0275
     12 C          63.7048   90.3043   15.4014 C.ar    1  UNL1        0.0029
     13 C          64.3071   91.4977   16.0819 C.ar    1  UNL1        0.0369
     14 C          65.6891   91.9515   15.7160 C.ar    1  UNL1        0.1443
     15 C          66.4689   91.2121   14.6696 C.ar    1  UNL1        0.0369
     16 C          65.8666   90.0188   13.9890 C.ar    1  UNL1        0.0029
     17 O          66.2914   93.1449   16.3966 O.3     1  UNL1       -0.4236
     18 C          67.7786   93.3400   16.3916 C.3     1  UNL1        0.5087
     19 F          68.3608   94.6587   15.9766 F       1  UNL1       -0.1550
     20 F          68.6838   92.2163   16.8016 F       1  UNL1       -0.1550
     21 C          63.4050   89.3808   12.6726 C.ar    1  UNL1        0.0279
     22 C          61.9803   89.3568   12.2042 C.ar    1  UNL1       -0.0002
     23 C          61.5030   90.3662   11.2024 C.ar    1  UNL1        0.0004
     24 C          62.4505   91.3995   10.6690 C.ar    1  UNL1        0.0082
     25 C          63.8753   91.4235   11.1374 C.ar    1  UNL1        0.0415
     26 C          64.3526   90.4141   12.1392 C.ar    1  UNL1        0.0080
     27 C          64.8228   92.4567   10.6041 C.1     1  UNL1       -0.0644
     28 C          65.7703   93.4900   10.0707 C.1     1  UNL1       -0.0874
     29 C          66.7179   94.5233    9.5373 C.3     1  UNL1        0.0645
     30 C          67.7505   94.9443    8.5341 C.3     1  UNL1        0.0140
     31 C          67.3264   95.8920    9.6167 C.3     1  UNL1        0.0140
@<TRIPOS>BOND
     1     1     2    1
     2     2     3   am
     3     3     4    2
     4     3     5    1
     5     5    11    1
     6    11    12   ar
     7    12    13   ar
     8    13    14   ar
     9    14    17    1
    10    17    18    1
    11    18    19    1
    12    18    20    1
    13    14    15   ar
    14    15    16   ar
    15     5    21    1
    16    21    22   ar
    17    22    23   ar
    18    23    24   ar
    19    24    25   ar
    20    25    27    1
    21    27    28    3
    22    28    29    1
    23    29    30    1
    24    30    31    1
    25    25    26   ar
    26     5     6    1
    27     6     7    2
    28     7     8    1
    29     7     2    1
    30    16    11   ar
    31    26    21   ar
    32    31    29    1
    33     8     9    1
    34     8    10    1
@<TRIPOS>MOLECULE
*****
 31 34 0 0 0
SMALL
GASTEIGER

@<TRIPOS>ATOM
      1 C          59.1969   88.4010    6.5046 C.3     1  UNL1        0.2160
      2 N          59.9708   87.6340    7.5355 N.am    1  UNL1       -0.1416
      3 C          60.3087   88.1086    8.9178 C.2     1  UNL1        0.3314
      4 O          59.9319   89.4335    9.5118 O.2     1  UNL1       -0.2520
      5 C          61.0894   87.0257    9.6017 C.3     1  UNL1        0.2669
      6 N          61.2341   85.8819    8.6422 N.2     1  UNL1       -0.0890
      7 C          60.5427   86.2579    7.3652 C.2     1  UNL1        0.3741
      8 N          60.4411   85.4070    6.1340 N.pl3   1  UNL1       -0.2512
      9 H          60.8515   84.5123    6.1188 H       1  UNL1        0.2412
     10 H          59.9640   85.7433    5.3412 H       1  UNL1        0.2412
     11 C          61.8743   86.1434   10.5267 C.ar    1  UNL1        0.0275
     12 C          62.9100   85.2100    9.9738 C.ar    1  UNL1        0.0029
     13 C          63.6948   84.3277   10.8988 C.ar    1  UNL1        0.0369
     14 C          63.4438   84.3789   12.3768 C.ar    1  UNL1        0.1443
     15 C          62.4080   85.3124   12.9297 C.ar    1  UNL1        0.0369
     16 C          61.6233   86.1946   12.0047 C.ar    1  UNL1        0.0029
     17 O          64.2287   83.4966   13.3018 O.3     1  UNL1       -0.4236
     18 C          64.6589   84.0109   14.6436 C.3     1  UNL1        0.5087
     19 F          65.2252   85.3942   14.7702 F       1  UNL1       -0.1550
     20 F          64.5228   83.1421   15.8587 F       1  UNL1       -0.1550
     21 C          61.1089   87.9851   10.7546 C.ar    1  UNL1        0.0279
     22 C          59.8666   88.2091   11.5649 C.ar    1  UNL1       -0.0002
     23 C          59.8860   89.1685   12.7179 C.ar    1  UNL1        0.0004
     24 C          61.1477   89.9039   13.0605 C.ar    1  UNL1        0.0082
     25 C          62.3900   89.6798   12.2503 C.ar    1  UNL1        0.0415
     26 C          62.3706   88.7204   11.0973 C.ar    1  UNL1        0.0080
     27 C          63.6516   90.4151   12.5930 C.1     1  UNL1       -0.0644
     28 C          64.9133   91.1504   12.9356 C.1     1  UNL1       -0.0874
     29 C          66.1750   91.8857   13.2783 C.3     1  UNL1        0.0645
     30 C          67.6567   91.8843   13.5120 C.3     1  UNL1        0.0140
     31 C          66.8787   93.1606   13.6382 C.3     1  UNL1        0.0140
@<TRIPOS>BOND
     1     1     2    1
     2     2     3   am
     3     3     4    2
     4     3     5    1
     5     5    11    1
     6    11    12   ar
     7    12    13   ar
     8    13    14   ar
     9    14    17    1
    10    17    18    1
    11    18    19    1
    12    18    20    1
    13    14    15   ar
    14    15    16   ar
    15     5    21    1
    16    21    22   ar
    17    22    23   ar
    18    23    24   ar
    19    24    25   ar
    20    25    27    1
    21    27    28    3
    22    28    29    1
    23    29    30    1
    24    30    31    1
    25    25    26   ar
    26     5     6    1
    27     6     7    2
    28     7     8    1
    29     7     2    1
    30    16    11   ar
    31    26    21   ar
    32    31    29    1
    33     8     9    1
    34     8    10    1
