@<TRIPOS>MOLECULE
*****
 33 37 0 0 0
SMALL
GASTEIGER

@<TRIPOS>ATOM
      1 N          63.4434   88.8129   13.5901 N.3     1  UNL1       -0.2679
      2 C          62.9571   89.1366   12.2086 C.3     1  UNL1        0.0978
      3 C          63.0392   90.5436   11.6951 C.3     1  UNL1        0.0224
      4 C          62.5529   90.8673   10.3134 C.3     1  UNL1        0.0065
      5 C          61.9844   89.7841    9.4455 C.3     1  UNL1        0.0277
      6 C          61.9022   88.3771    9.9590 C.ar    1  UNL1       -0.0073
      7 C          61.3337   87.2939    9.0911 C.ar    1  UNL1       -0.0015
      8 C          61.2515   85.8870    9.6046 C.ar    1  UNL1        0.0203
      9 C          61.7379   85.5632   10.9861 C.ar    1  UNL1        0.0985
     10 N          62.3063   86.6464   11.8541 N.ar    1  UNL1       -0.2471
     11 C          62.3885   88.0534   11.3405 C.ar    1  UNL1        0.0695
     12 C          63.2366   89.7928   14.7069 C.3     1  UNL1        0.0886
     13 C          68.9658   93.4988   15.5394 C.ar    1  UNL1        0.0204
     14 C          69.1504   92.5626   14.3820 C.ar    1  UNL1        0.0984
     15 N          68.0415   91.6342   13.9841 N.ar    1  UNL1       -0.2484
     16 C          66.7480   91.6419   14.7434 C.ar    1  UNL1        0.0577
     17 C          66.5634   92.5781   15.9008 C.ar    1  UNL1        0.0073
     18 C          67.6723   93.5065   16.2988 C.ar    1  UNL1       -0.0002
     19 C          65.2698   92.5858   16.6603 C.3     1  UNL1        0.0968
     20 N          64.1609   91.6574   16.2623 N.3     1  UNL1       -0.2934
     21 C          64.3456   90.7212   15.1049 C.3     1  UNL1        0.0764
     22 C          65.6391   90.7135   14.3455 C.3     1  UNL1        0.0626
     23 H          63.3530   92.2404   16.0435 H       1  UNL1        0.1236
     24 C          64.1364   87.5092   13.8550 C.3     1  UNL1        0.0738
     25 C          63.9955   86.8429   15.1914 C.3     1  UNL1        0.0347
     26 C          64.5129   85.4495   15.3930 C.3     1  UNL1        0.0736
     27 N          63.9075   84.3072   14.6321 N.3     1  UNL1       -0.2703
     28 C          62.7492   83.5504   15.2113 C.3     1  UNL1        0.0894
     29 C          62.1438   82.4082   14.4505 C.3     1  UNL1        0.0862
     30 N          62.6968   82.0228   13.1105 N.3     1  UNL1       -0.2951
     31 C          63.8551   82.7796   12.5312 C.3     1  UNL1        0.0862
     32 C          64.4604   83.9218   13.2921 C.3     1  UNL1        0.0894
     33 H          61.9302   82.1009   12.4421 H       1  UNL1        0.1233
@<TRIPOS>BOND
     1    13    14   ar
     2    14    15   ar
     3    15    16   ar
     4    16    17   ar
     5    17    18   ar
     6    17    19    1
     7    19    20    1
     8    20    21    1
     9    21    12    1
    10    12     1    1
    11     1    24    1
    12    24    25    1
    13    25    26    1
    14    26    27    1
    15    27    28    1
    16    28    29    1
    17    29    30    1
    18    30    31    1
    19    31    32    1
    20     2     1    1
    21     2     3    1
    22     3     4    1
    23     4     5    1
    24     5     6    1
    25     6     7   ar
    26     7     8   ar
    27     8     9   ar
    28     9    10   ar
    29    10    11   ar
    30    21    22    1
    31    18    13   ar
    32    32    27    1
    33    11     2    1
    34    22    16    1
    35    11     6   ar
    36    20    23    1
    37    30    33    1
@<TRIPOS>MOLECULE
*****
 33 37 0 0 0
SMALL
GASTEIGER

@<TRIPOS>ATOM
      1 N          60.8812   87.5445   10.1662 N.3     1  UNL1       -0.2679
      2 C          61.7768   86.4055    9.7782 C.3     1  UNL1        0.0978
      3 C          62.0895   86.1562    8.3325 C.3     1  UNL1        0.0224
      4 C          62.9851   85.0171    7.9444 C.3     1  UNL1        0.0065
      5 C          63.5679   84.1274    9.0021 C.3     1  UNL1        0.0277
      6 C          63.2552   84.3767   10.4478 C.ar    1  UNL1       -0.0073
      7 C          63.8381   83.4870   11.5054 C.ar    1  UNL1       -0.0015
      8 C          63.5254   83.7363   12.9512 C.ar    1  UNL1        0.0203
      9 C          62.6298   84.8753   13.3392 C.ar    1  UNL1        0.0985
     10 N          62.0470   85.7650   12.2815 N.ar    1  UNL1       -0.2471
     11 C          62.3597   85.5157   10.8358 C.ar    1  UNL1        0.0695
     12 C          61.1628   88.3287   11.4135 C.3     1  UNL1        0.0886
     13 C          66.0872   92.9921   12.5330 C.ar    1  UNL1        0.0204
     14 C          65.9299   92.1404   13.7577 C.ar    1  UNL1        0.0984
     15 N          64.9136   91.0374   13.7787 N.ar    1  UNL1       -0.2484
     16 C          64.0546   90.7861   12.5751 C.ar    1  UNL1        0.0577
     17 C          64.2118   91.6377   11.3504 C.ar    1  UNL1        0.0073
     18 C          65.2282   92.7407   11.3293 C.ar    1  UNL1       -0.0002
     19 C          63.3528   91.3864   10.1466 C.3     1  UNL1        0.0968
     20 N          62.3364   90.2834   10.1677 N.3     1  UNL1       -0.2934
     21 C          62.1792   89.4317   11.3925 C.3     1  UNL1        0.0764
     22 C          63.0382   89.6831   12.5961 C.3     1  UNL1        0.0626
     23 H          62.5689   89.6541    9.3993 H       1  UNL1        0.1236
     24 C          59.7040   87.8993    9.3070 C.3     1  UNL1        0.0738
     25 C          59.8120   89.0151    8.3104 C.3     1  UNL1        0.0347
     26 C          59.3659   88.8018    6.8943 C.3     1  UNL1        0.0736
     27 N          59.1153   89.9807    6.0012 N.3     1  UNL1       -0.2703
     28 C          60.2653   90.6696    5.3283 C.3     1  UNL1        0.0894
     29 C          60.0147   91.8485    4.4353 C.3     1  UNL1        0.0862
     30 N          58.6142   92.3383    4.2152 N.3     1  UNL1       -0.2951
     31 C          57.4642   91.6494    4.8881 C.3     1  UNL1        0.0862
     32 C          57.7148   90.4706    5.7811 C.3     1  UNL1        0.0894
     33 H          58.4398   92.2901    3.2114 H       1  UNL1        0.1233
@<TRIPOS>BOND
     1    13    14   ar
     2    14    15   ar
     3    15    16   ar
     4    16    17   ar
     5    17    18   ar
     6    17    19    1
     7    19    20    1
     8    20    21    1
     9    21    12    1
    10    12     1    1
    11     1    24    1
    12    24    25    1
    13    25    26    1
    14    26    27    1
    15    27    28    1
    16    28    29    1
    17    29    30    1
    18    30    31    1
    19    31    32    1
    20     2     1    1
    21     2     3    1
    22     3     4    1
    23     4     5    1
    24     5     6    1
    25     6     7   ar
    26     7     8   ar
    27     8     9   ar
    28     9    10   ar
    29    10    11   ar
    30    21    22    1
    31    18    13   ar
    32    32    27    1
    33    11     2    1
    34    22    16    1
    35    11     6   ar
    36    20    23    1
    37    30    33    1
@<TRIPOS>MOLECULE
*****
 33 37 0 0 0
SMALL
GASTEIGER

@<TRIPOS>ATOM
      1 N          62.7453   89.8914   12.1577 N.3     1  UNL1       -0.2679
      2 C          62.4417   88.6421   11.3850 C.3     1  UNL1        0.0978
      3 C          61.7569   88.7315   10.0535 C.3     1  UNL1        0.0224
      4 C          61.4533   87.4821    9.2809 C.3     1  UNL1        0.0065
      5 C          61.8345   86.1434    9.8398 C.3     1  UNL1        0.0277
      6 C          62.5194   86.0540   11.1713 C.ar    1  UNL1       -0.0073
      7 C          62.9006   84.7152   11.7302 C.ar    1  UNL1       -0.0015
      8 C          63.5855   84.6258   13.0617 C.ar    1  UNL1        0.0203
      9 C          63.8891   85.8751   13.8344 C.ar    1  UNL1        0.0985
     10 N          63.5078   87.2138   13.2755 N.ar    1  UNL1       -0.2471
     11 C          62.8230   87.3033   11.9439 C.ar    1  UNL1        0.0695
     12 C          62.9001   89.8323   13.6485 C.3     1  UNL1        0.0886
     13 C          68.5563   93.1120   15.7699 C.ar    1  UNL1        0.0204
     14 C          68.8695   92.3558   14.5129 C.ar    1  UNL1        0.0984
     15 N          67.8009   91.5487   13.8372 N.ar    1  UNL1       -0.2484
     16 C          66.4191   91.4976   14.4186 C.ar    1  UNL1        0.0577
     17 C          66.1059   92.2538   15.6756 C.ar    1  UNL1        0.0073
     18 C          67.1745   93.0610   16.3512 C.ar    1  UNL1       -0.0002
     19 C          64.7241   92.2028   16.2570 C.3     1  UNL1        0.0968
     20 N          63.6554   91.3956   15.5813 N.3     1  UNL1       -0.2934
     21 C          63.9687   90.6395   14.3242 C.3     1  UNL1        0.0764
     22 C          65.3505   90.6905   13.7429 C.3     1  UNL1        0.0626
     23 H          62.8977   92.0402   15.3561 H       1  UNL1        0.1236
     24 C          62.8942   91.1999   11.4395 C.3     1  UNL1        0.0738
     25 C          64.2126   91.5755   10.8308 C.3     1  UNL1        0.0347
     26 C          64.9787   92.7489   11.3659 C.3     1  UNL1        0.0736
     27 N          66.1753   93.2652   10.6232 N.3     1  UNL1       -0.2703
     28 C          66.2422   94.7082   10.2193 C.3     1  UNL1        0.0894
     29 C          67.4388   95.2244    9.4766 C.3     1  UNL1        0.0862
     30 N          68.5685   94.2976    9.1379 N.3     1  UNL1       -0.2951
     31 C          68.5016   92.8546    9.5418 C.3     1  UNL1        0.0862
     32 C          67.3050   92.3384   10.2844 C.3     1  UNL1        0.0894
     33 H          69.4072   94.6857    9.5696 H       1  UNL1        0.1233
@<TRIPOS>BOND
     1    13    14   ar
     2    14    15   ar
     3    15    16   ar
     4    16    17   ar
     5    17    18   ar
     6    17    19    1
     7    19    20    1
     8    20    21    1
     9    21    12    1
    10    12     1    1
    11     1    24    1
    12    24    25    1
    13    25    26    1
    14    26    27    1
    15    27    28    1
    16    28    29    1
    17    29    30    1
    18    30    31    1
    19    31    32    1
    20     2     1    1
    21     2     3    1
    22     3     4    1
    23     4     5    1
    24     5     6    1
    25     6     7   ar
    26     7     8   ar
    27     8     9   ar
    28     9    10   ar
    29    10    11   ar
    30    21    22    1
    31    18    13   ar
    32    32    27    1
    33    11     2    1
    34    22    16    1
    35    11     6   ar
    36    20    23    1
    37    30    33    1
@<TRIPOS>MOLECULE
*****
 33 37 0 0 0
SMALL
GASTEIGER

@<TRIPOS>ATOM
      1 N          62.9013   90.1569   12.9300 N.3     1  UNL1       -0.2679
      2 C          63.9155   91.1296   12.4054 C.3     1  UNL1        0.0978
      3 C          63.9913   91.4137   10.9345 C.3     1  UNL1        0.0224
      4 C          65.0056   92.3865   10.4099 C.3     1  UNL1        0.0065
      5 C          65.9439   93.0750   11.3561 C.3     1  UNL1        0.0277
      6 C          65.8680   92.7908   12.8270 C.ar    1  UNL1       -0.0073
      7 C          66.8064   93.4794   13.7732 C.ar    1  UNL1       -0.0015
      8 C          66.7305   93.1952   15.2441 C.ar    1  UNL1        0.0203
      9 C          65.7164   92.2225   15.7688 C.ar    1  UNL1        0.0985
     10 N          64.7780   91.5340   14.8225 N.ar    1  UNL1       -0.2471
     11 C          64.8539   91.8181   13.3516 C.ar    1  UNL1        0.0695
     12 C          61.5289   90.1058   12.3268 C.3     1  UNL1        0.0886
     13 C          61.3899   85.3423    7.3730 C.ar    1  UNL1        0.0204
     14 C          62.6499   85.1841    8.1712 C.ar    1  UNL1        0.0984
     15 N          62.9298   86.1051    9.3216 N.ar    1  UNL1       -0.2484
     16 C          61.9495   87.1844    9.6738 C.ar    1  UNL1        0.0577
     17 C          60.6894   87.3427    8.8756 C.ar    1  UNL1        0.0073
     18 C          60.4096   86.4216    7.7253 C.ar    1  UNL1       -0.0002
     19 C          59.7091   88.4221    9.2279 C.3     1  UNL1        0.0968
     20 N          59.9889   89.3431   10.3782 N.3     1  UNL1       -0.2934
     21 C          61.2491   89.1848   11.1764 C.3     1  UNL1        0.0764
     22 C          62.2293   88.1055   10.8242 C.3     1  UNL1        0.0626
     23 H          59.2120   89.2427   11.0315 H       1  UNL1        0.1236
     24 C          63.2595   89.2351   14.0579 C.3     1  UNL1        0.0738
     25 C          64.2359   88.1189   13.8331 C.3     1  UNL1        0.0347
     26 C          64.3121   86.9813   14.8078 C.3     1  UNL1        0.0736
     27 N          63.6987   85.6564   14.4637 N.3     1  UNL1       -0.2703
     28 C          63.3631   84.6800   15.5518 C.3     1  UNL1        0.0894
     29 C          62.7497   83.3552   15.2076 C.3     1  UNL1        0.0862
     30 N          62.4719   83.0067   13.7753 N.3     1  UNL1       -0.2951
     31 C          62.8074   83.9831   12.6872 C.3     1  UNL1        0.0862
     32 C          63.4208   85.3080   13.0314 C.3     1  UNL1        0.0894
     33 H          61.4713   82.8212   13.7062 H       1  UNL1        0.1233
@<TRIPOS>BOND
     1    13    14   ar
     2    14    15   ar
     3    15    16   ar
     4    16    17   ar
     5    17    18   ar
     6    17    19    1
     7    19    20    1
     8    20    21    1
     9    21    12    1
    10    12     1    1
    11     1    24    1
    12    24    25    1
    13    25    26    1
    14    26    27    1
    15    27    28    1
    16    28    29    1
    17    29    30    1
    18    30    31    1
    19    31    32    1
    20     2     1    1
    21     2     3    1
    22     3     4    1
    23     4     5    1
    24     5     6    1
    25     6     7   ar
    26     7     8   ar
    27     8     9   ar
    28     9    10   ar
    29    10    11   ar
    30    21    22    1
    31    18    13   ar
    32    32    27    1
    33    11     2    1
    34    22    16    1
    35    11     6   ar
    36    20    23    1
    37    30    33    1
@<TRIPOS>MOLECULE
*****
 33 37 0 0 0
SMALL
GASTEIGER

@<TRIPOS>ATOM
      1 N          62.5630   89.8399   12.1196 N.3     1  UNL1       -0.2679
      2 C          62.4031   88.4560   11.5637 C.3     1  UNL1        0.0978
      3 C          63.0978   87.2995   12.2193 C.3     1  UNL1        0.0224
      4 C          62.9379   85.9155   11.6633 C.3     1  UNL1        0.0065
      5 C          62.0832   85.6881   10.4517 C.3     1  UNL1        0.0277
      6 C          61.3885   86.8446    9.7961 C.ar    1  UNL1       -0.0073
      7 C          60.5339   86.6172    8.5846 C.ar    1  UNL1       -0.0015
      8 C          59.8391   87.7738    7.9290 C.ar    1  UNL1        0.0203
      9 C          59.9991   89.1577    8.4850 C.ar    1  UNL1        0.0985
     10 N          60.8537   89.3851    9.6965 N.ar    1  UNL1       -0.2471
     11 C          61.5484   88.2286   10.3521 C.ar    1  UNL1        0.0695
     12 C          62.5472   90.0586   13.6035 C.3     1  UNL1        0.0886
     13 C          68.4788   92.8810   15.6284 C.ar    1  UNL1        0.0204
     14 C          68.6911   92.1767   14.3213 C.ar    1  UNL1        0.0984
     15 N          67.5473   91.4713   13.6548 N.ar    1  UNL1       -0.2484
     16 C          66.1911   91.4703   14.2956 C.ar    1  UNL1        0.0577
     17 C          65.9787   92.1746   15.6028 C.ar    1  UNL1        0.0073
     18 C          67.1225   92.8800   16.2692 C.ar    1  UNL1       -0.0002
     19 C          64.6224   92.1736   16.2436 C.3     1  UNL1        0.0968
     20 N          63.4786   91.4683   15.5772 N.3     1  UNL1       -0.2934
     21 C          63.6910   90.7639   14.2700 C.3     1  UNL1        0.0764
     22 C          65.0472   90.7650   13.6292 C.3     1  UNL1        0.0626
     23 H          62.7527   92.1675   15.4204 H       1  UNL1        0.1236
     24 C          62.7388   91.0053   11.1917 C.3     1  UNL1        0.0738
     25 C          64.1113   91.3947   10.7283 C.3     1  UNL1        0.0347
     26 C          64.6667   92.7433   11.0788 C.3     1  UNL1        0.0736
     27 N          65.9694   93.1945   10.4877 N.3     1  UNL1       -0.2703
     28 C          67.0668   92.2012   10.2445 C.3     1  UNL1        0.0894
     29 C          68.3694   92.6525    9.6535 C.3     1  UNL1        0.0862
     30 N          68.5748   94.0971    9.3057 N.3     1  UNL1       -0.2951
     31 C          67.4775   95.0904    9.5489 C.3     1  UNL1        0.0862
     32 C          66.1748   94.6391   10.1399 C.3     1  UNL1        0.0894
     33 H          68.7884   94.1325    8.3089 H       1  UNL1        0.1233
@<TRIPOS>BOND
     1    13    14   ar
     2    14    15   ar
     3    15    16   ar
     4    16    17   ar
     5    17    18   ar
     6    17    19    1
     7    19    20    1
     8    20    21    1
     9    21    12    1
    10    12     1    1
    11     1    24    1
    12    24    25    1
    13    25    26    1
    14    26    27    1
    15    27    28    1
    16    28    29    1
    17    29    30    1
    18    30    31    1
    19    31    32    1
    20     2     1    1
    21     2     3    1
    22     3     4    1
    23     4     5    1
    24     5     6    1
    25     6     7   ar
    26     7     8   ar
    27     8     9   ar
    28     9    10   ar
    29    10    11   ar
    30    21    22    1
    31    18    13   ar
    32    32    27    1
    33    11     2    1
    34    22    16    1
    35    11     6   ar
    36    20    23    1
    37    30    33    1
@<TRIPOS>MOLECULE
*****
 33 37 0 0 0
SMALL
GASTEIGER

@<TRIPOS>ATOM
      1 N          61.7895   87.7935   11.0963 N.3     1  UNL1       -0.2679
      2 C          60.9537   87.4145    9.9098 C.3     1  UNL1        0.0978
      3 C          59.5891   88.0114    9.7322 C.3     1  UNL1        0.0224
      4 C          58.7534   87.6325    8.5456 C.3     1  UNL1        0.0065
      5 C          59.2822   86.6566    7.5367 C.3     1  UNL1        0.0277
      6 C          60.6468   86.0597    7.7142 C.ar    1  UNL1       -0.0073
      7 C          61.1757   85.0839    6.7053 C.ar    1  UNL1       -0.0015
      8 C          62.5403   84.4870    6.8829 C.ar    1  UNL1        0.0203
      9 C          63.3761   84.8660    8.0694 C.ar    1  UNL1        0.0985
     10 N          62.8472   85.8418    9.0783 N.ar    1  UNL1       -0.2471
     11 C          61.4826   86.4387    8.9008 C.ar    1  UNL1        0.0695
     12 C          61.6665   89.1641   11.6934 C.3     1  UNL1        0.0886
     13 C          66.9600   92.7532   14.2128 C.ar    1  UNL1        0.0204
     14 C          66.5088   93.3807   12.9272 C.ar    1  UNL1        0.0984
     15 N          65.3599   92.7883   12.1662 N.ar    1  UNL1       -0.2484
     16 C          64.6621   91.5685   12.6908 C.ar    1  UNL1        0.0577
     17 C          65.1133   90.9411   13.9764 C.ar    1  UNL1        0.0073
     18 C          66.2622   91.5335   14.7374 C.ar    1  UNL1       -0.0002
     19 C          64.4155   89.7213   14.5010 C.3     1  UNL1        0.0968
     20 N          63.2666   89.1289   13.7400 N.3     1  UNL1       -0.2934
     21 C          62.8155   89.7564   12.4544 C.3     1  UNL1        0.0764
     22 C          63.5132   90.9762   11.9298 C.3     1  UNL1        0.0626
     23 H          62.4631   89.1346   14.3683 H       1  UNL1        0.1236
     24 C          62.7482   86.8018   11.6858 C.3     1  UNL1        0.0738
     25 C          62.2294   85.5647   12.3569 C.3     1  UNL1        0.0347
     26 C          63.1842   84.6067   13.0054 C.3     1  UNL1        0.0736
     27 N          62.8660   83.1413   13.0439 N.3     1  UNL1       -0.2703
     28 C          63.2367   82.2626   11.8862 C.3     1  UNL1        0.0894
     29 C          62.9185   80.7973   11.9247 C.3     1  UNL1        0.0862
     30 N          62.2295   80.2107   13.1211 N.3     1  UNL1       -0.2951
     31 C          61.8587   81.0894   14.2788 C.3     1  UNL1        0.0862
     32 C          62.1770   82.5547   14.2402 C.3     1  UNL1        0.0894
     33 H          62.8441   79.4840   13.4879 H       1  UNL1        0.1233
@<TRIPOS>BOND
     1    13    14   ar
     2    14    15   ar
     3    15    16   ar
     4    16    17   ar
     5    17    18   ar
     6    17    19    1
     7    19    20    1
     8    20    21    1
     9    21    12    1
    10    12     1    1
    11     1    24    1
    12    24    25    1
    13    25    26    1
    14    26    27    1
    15    27    28    1
    16    28    29    1
    17    29    30    1
    18    30    31    1
    19    31    32    1
    20     2     1    1
    21     2     3    1
    22     3     4    1
    23     4     5    1
    24     5     6    1
    25     6     7   ar
    26     7     8   ar
    27     8     9   ar
    28     9    10   ar
    29    10    11   ar
    30    21    22    1
    31    18    13   ar
    32    32    27    1
    33    11     2    1
    34    22    16    1
    35    11     6   ar
    36    20    23    1
    37    30    33    1
@<TRIPOS>MOLECULE
*****
 33 37 0 0 0
SMALL
GASTEIGER

@<TRIPOS>ATOM
      1 N          63.4583   90.5937   11.7109 N.3     1  UNL1       -0.2679
      2 C          64.4748   91.6962   11.7425 C.3     1  UNL1        0.0978
      3 C          64.8559   92.4015   10.4747 C.3     1  UNL1        0.0224
      4 C          65.8725   93.5041   10.5062 C.3     1  UNL1        0.0065
      5 C          66.5079   93.9013   11.8056 C.3     1  UNL1        0.0277
      6 C          66.1268   93.1961   13.0734 C.ar    1  UNL1       -0.0073
      7 C          66.7622   93.5934   14.3728 C.ar    1  UNL1       -0.0015
      8 C          66.3811   92.8881   15.6406 C.ar    1  UNL1        0.0203
      9 C          65.3646   91.7856   15.6091 C.ar    1  UNL1        0.0985
     10 N          64.7292   91.3883   14.3097 N.ar    1  UNL1       -0.2471
     11 C          65.1103   92.0936   13.0419 C.ar    1  UNL1        0.0695
     12 C          62.9971   89.9619   12.9909 C.3     1  UNL1        0.0886
     13 C          64.0933   83.1863   13.3653 C.ar    1  UNL1        0.0204
     14 C          63.2723   83.4842   12.1458 C.ar    1  UNL1        0.0984
     15 N          62.8889   84.8989   11.8271 N.ar    1  UNL1       -0.2484
     16 C          63.3264   86.0157   12.7278 C.ar    1  UNL1        0.0577
     17 C          64.1474   85.7178   13.9472 C.ar    1  UNL1        0.0073
     18 C          64.5309   84.3031   14.2660 C.ar    1  UNL1       -0.0002
     19 C          64.5850   86.8346   14.8480 C.3     1  UNL1        0.0968
     20 N          64.2016   88.2493   14.5292 N.3     1  UNL1       -0.2934
     21 C          63.3806   88.5472   13.3097 C.3     1  UNL1        0.0764
     22 C          62.9430   87.4304   12.4090 C.3     1  UNL1        0.0626
     23 H          65.0702   88.7757   14.4353 H       1  UNL1        0.1236
     24 C          62.9029   90.1229   10.3995 C.3     1  UNL1        0.0738
     25 C          61.4300   90.2166   10.1318 C.3     1  UNL1        0.0347
     26 C          60.5415   89.0396   10.4060 C.3     1  UNL1        0.0736
     27 N          60.4147   87.9429    9.3905 N.3     1  UNL1       -0.2703
     28 C          61.5466   86.9814    9.1796 C.3     1  UNL1        0.0894
     29 C          61.4197   85.8848    8.1641 C.3     1  UNL1        0.0862
     30 N          60.1610   85.7496    7.3595 N.3     1  UNL1       -0.2951
     31 C          59.0292   86.7110    7.5704 C.3     1  UNL1        0.0862
     32 C          59.1560   87.8076    8.5859 C.3     1  UNL1        0.0894
     33 H          59.7928   84.8163    7.5435 H       1  UNL1        0.1233
@<TRIPOS>BOND
     1    13    14   ar
     2    14    15   ar
     3    15    16   ar
     4    16    17   ar
     5    17    18   ar
     6    17    19    1
     7    19    20    1
     8    20    21    1
     9    21    12    1
    10    12     1    1
    11     1    24    1
    12    24    25    1
    13    25    26    1
    14    26    27    1
    15    27    28    1
    16    28    29    1
    17    29    30    1
    18    30    31    1
    19    31    32    1
    20     2     1    1
    21     2     3    1
    22     3     4    1
    23     4     5    1
    24     5     6    1
    25     6     7   ar
    26     7     8   ar
    27     8     9   ar
    28     9    10   ar
    29    10    11   ar
    30    21    22    1
    31    18    13   ar
    32    32    27    1
    33    11     2    1
    34    22    16    1
    35    11     6   ar
    36    20    23    1
    37    30    33    1
@<TRIPOS>MOLECULE
*****
 33 37 0 0 0
SMALL
GASTEIGER

@<TRIPOS>ATOM
      1 N          63.3526   90.0480   12.7821 N.3     1  UNL1       -0.2679
      2 C          64.2206   91.1912   12.3466 C.3     1  UNL1        0.0978
      3 C          64.2354   91.6160   10.9081 C.3     1  UNL1        0.0224
      4 C          65.1034   92.7592   10.4725 C.3     1  UNL1        0.0065
      5 C          65.9565   93.4776   11.4755 C.3     1  UNL1        0.0277
      6 C          65.9417   93.0529   12.9140 C.ar    1  UNL1       -0.0073
      7 C          66.7948   93.7713   13.9170 C.ar    1  UNL1       -0.0015
      8 C          66.7800   93.3466   15.3555 C.ar    1  UNL1        0.0203
      9 C          65.9120   92.2034   15.7911 C.ar    1  UNL1        0.0985
     10 N          65.0589   91.4850   14.7881 N.ar    1  UNL1       -0.2471
     11 C          65.0738   91.9097   13.3496 C.ar    1  UNL1        0.0695
     12 C          63.9226   88.9585   13.6413 C.3     1  UNL1        0.0886
     13 C          63.1627   82.1336   13.3351 C.ar    1  UNL1        0.0204
     14 C          63.9153   82.4884   14.5832 C.ar    1  UNL1        0.0984
     15 N          64.2178   83.9243   14.8940 N.ar    1  UNL1       -0.2484
     16 C          63.7677   85.0055   13.9568 C.ar    1  UNL1        0.0577
     17 C          63.0151   84.6507   12.7087 C.ar    1  UNL1        0.0073
     18 C          62.7126   83.2148   12.3979 C.ar    1  UNL1       -0.0002
     19 C          62.5650   85.7319   11.7714 C.3     1  UNL1        0.0968
     20 N          62.8675   87.1679   12.0823 N.3     1  UNL1       -0.2934
     21 C          63.6201   87.5226   13.3305 C.3     1  UNL1        0.0764
     22 C          64.0702   86.4414   14.2677 C.3     1  UNL1        0.0626
     23 H          61.9719   87.6537   12.1303 H       1  UNL1        0.1236
     24 C          61.9147   89.9943   12.3586 C.3     1  UNL1        0.0738
     25 C          61.5537   90.1383   10.9099 C.3     1  UNL1        0.0347
     26 C          61.9410   89.0700    9.9307 C.3     1  UNL1        0.0736
     27 N          60.8966   88.4360    9.0603 N.3     1  UNL1       -0.2703
     28 C          59.9934   89.2949    8.2258 C.3     1  UNL1        0.0894
     29 C          58.9491   88.6609    7.3555 C.3     1  UNL1        0.0862
     30 N          58.8080   87.1679    7.3198 N.3     1  UNL1       -0.2951
     31 C          59.7112   86.3090    8.1543 C.3     1  UNL1        0.0862
     32 C          60.7555   86.9431    9.0246 C.3     1  UNL1        0.0894
     33 H          58.9437   86.8825    6.3500 H       1  UNL1        0.1233
@<TRIPOS>BOND
     1    13    14   ar
     2    14    15   ar
     3    15    16   ar
     4    16    17   ar
     5    17    18   ar
     6    17    19    1
     7    19    20    1
     8    20    21    1
     9    21    12    1
    10    12     1    1
    11     1    24    1
    12    24    25    1
    13    25    26    1
    14    26    27    1
    15    27    28    1
    16    28    29    1
    17    29    30    1
    18    30    31    1
    19    31    32    1
    20     2     1    1
    21     2     3    1
    22     3     4    1
    23     4     5    1
    24     5     6    1
    25     6     7   ar
    26     7     8   ar
    27     8     9   ar
    28     9    10   ar
    29    10    11   ar
    30    21    22    1
    31    18    13   ar
    32    32    27    1
    33    11     2    1
    34    22    16    1
    35    11     6   ar
    36    20    23    1
    37    30    33    1
@<TRIPOS>MOLECULE
*****
 33 37 0 0 0
SMALL
GASTEIGER

@<TRIPOS>ATOM
      1 N          63.4481   90.2506   13.8146 N.3     1  UNL1       -0.2679
      2 C          64.5515   91.2423   14.0358 C.3     1  UNL1        0.0978
      3 C          65.1090   91.4493   15.4129 C.3     1  UNL1        0.0224
      4 C          66.2125   92.4410   15.6341 C.3     1  UNL1        0.0065
      5 C          66.7584   93.2257   14.4783 C.3     1  UNL1        0.0277
      6 C          66.2010   93.0188   13.1012 C.ar    1  UNL1       -0.0073
      7 C          66.7469   93.8036   11.9453 C.ar    1  UNL1       -0.0015
      8 C          66.1895   93.5966   10.5682 C.ar    1  UNL1        0.0203
      9 C          65.0860   92.6050   10.3470 C.ar    1  UNL1        0.0985
     10 N          64.5401   91.8202   11.5028 N.ar    1  UNL1       -0.2471
     11 C          65.0975   92.0271   12.8799 C.ar    1  UNL1        0.0695
     12 C          62.4303   90.4887   12.7387 C.3     1  UNL1        0.0886
     13 C          60.0290   86.3314    7.8193 C.ar    1  UNL1        0.0204
     14 C          59.4319   87.6961    7.6435 C.ar    1  UNL1        0.0984
     15 N          59.7927   88.8006    8.5923 N.ar    1  UNL1       -0.2484
     16 C          60.7507   88.5402    9.7168 C.ar    1  UNL1        0.0577
     17 C          61.3478   87.1755    9.8925 C.ar    1  UNL1        0.0073
     18 C          60.9870   86.0711    8.9438 C.ar    1  UNL1       -0.0002
     19 C          62.3058   86.9151   11.0171 C.3     1  UNL1        0.0968
     20 N          62.6666   88.0196   11.9658 N.3     1  UNL1       -0.2934
     21 C          62.0694   89.3843   11.7900 C.3     1  UNL1        0.0764
     22 C          61.1115   89.6446   10.6655 C.3     1  UNL1        0.0626
     23 H          63.6791   88.1324   11.9150 H       1  UNL1        0.1236
     24 C          63.3625   89.0208   14.6691 C.3     1  UNL1        0.0738
     25 C          64.3782   87.9280   14.5147 C.3     1  UNL1        0.0347
     26 C          64.3031   86.7063   15.3817 C.3     1  UNL1        0.0736
     27 N          63.7318   85.4319   14.8341 N.3     1  UNL1       -0.2703
     28 C          64.1234   84.9621   13.4645 C.3     1  UNL1        0.0894
     29 C          63.5521   83.6878   12.9170 C.3     1  UNL1        0.0862
     30 N          62.5892   82.8834   13.7390 N.3     1  UNL1       -0.2951
     31 C          62.1976   83.3533   15.1086 C.3     1  UNL1        0.0862
     32 C          62.7689   84.6276   15.6561 C.3     1  UNL1        0.0894
     33 H          63.0009   81.9571   13.8521 H       1  UNL1        0.1233
@<TRIPOS>BOND
     1    13    14   ar
     2    14    15   ar
     3    15    16   ar
     4    16    17   ar
     5    17    18   ar
     6    17    19    1
     7    19    20    1
     8    20    21    1
     9    21    12    1
    10    12     1    1
    11     1    24    1
    12    24    25    1
    13    25    26    1
    14    26    27    1
    15    27    28    1
    16    28    29    1
    17    29    30    1
    18    30    31    1
    19    31    32    1
    20     2     1    1
    21     2     3    1
    22     3     4    1
    23     4     5    1
    24     5     6    1
    25     6     7   ar
    26     7     8   ar
    27     8     9   ar
    28     9    10   ar
    29    10    11   ar
    30    21    22    1
    31    18    13   ar
    32    32    27    1
    33    11     2    1
    34    22    16    1
    35    11     6   ar
    36    20    23    1
    37    30    33    1
