@<TRIPOS>MOLECULE
*****
 37 41 0 0 0
SMALL
GASTEIGER

@<TRIPOS>ATOM
      1 N          65.2592   92.3504   12.0654 N.3     1  UNL1       -0.2641
      2 C          66.3164   92.7263   11.0700 C.3     1  UNL1        0.0981
      3 C          67.3612   91.7263   10.6719 C.3     1  UNL1        0.0224
      4 C          68.4185   92.1022    9.6765 C.3     1  UNL1        0.0065
      5 C          68.4310   93.4780    9.0792 C.3     1  UNL1        0.0277
      6 C          67.3863   94.4780    9.4773 C.ar    1  UNL1       -0.0073
      7 C          67.3988   95.8540    8.8800 C.ar    1  UNL1       -0.0015
      8 C          66.3541   96.8540    9.2781 C.ar    1  UNL1        0.0203
      9 C          65.2968   96.4781   10.2735 C.ar    1  UNL1        0.0985
     10 N          65.2843   95.1022   10.8708 N.ar    1  UNL1       -0.2471
     11 C          66.3290   94.1022   10.4727 C.ar    1  UNL1        0.0695
     12 C          63.8699   92.0305   11.5991 C.3     1  UNL1        0.0989
     13 C          62.7607   90.1135   10.2407 C.2     1  UNL1       -0.0122
     14 C          63.6620   91.3111   10.2994 C.2     1  UNL1       -0.0120
     15 C          62.0672   89.6353   11.4819 C.3     1  UNL1        0.0950
     16 N          61.2944   88.3499   11.4612 N.3     1  UNL1       -0.2948
     17 H          61.1132   88.0996   12.4333 H       1  UNL1        0.1235
     18 F          63.3382   84.1702    8.1154 F       1  UNL1       -0.2043
     19 C          63.0433   84.7046    9.4855 C.3     1  UNL1        0.2640
     20 F          63.6416   83.3773    9.8467 F       1  UNL1       -0.2043
     21 C          62.9562   84.7780   10.9812 C.3     1  UNL1        0.0679
     22 C          62.3732   85.9931   11.6398 C.3     1  UNL1        0.0213
     23 C          61.8774   87.1348   10.8026 C.3     1  UNL1        0.0546
     24 C          61.9645   87.0614    9.3070 C.3     1  UNL1        0.0213
     25 C          62.5475   85.8463    8.6484 C.3     1  UNL1        0.0679
     26 C          65.5911   92.2946   13.5271 C.3     1  UNL1        0.0888
     27 C          64.9204   91.2847   14.4105 C.3     1  UNL1        0.0748
     28 C          65.0595   89.8205   14.1159 C.3     1  UNL1        0.0432
     29 C          64.3887   88.8107   14.9993 C.ar    1  UNL1       -0.0234
     30 C          64.5278   87.3465   14.7047 C.ar    1  UNL1       -0.0045
     31 C          63.8571   86.3368   15.5881 C.ar    1  UNL1       -0.0003
     32 C          63.0472   86.7911   16.7661 C.ar    1  UNL1       -0.0003
     33 C          62.9081   88.2553   17.0607 C.ar    1  UNL1       -0.0032
     34 C          63.5789   89.2651   16.1773 C.ar    1  UNL1       -0.0103
     35 C          63.4398   90.7293   16.4719 C.3     1  UNL1        0.0953
     36 N          64.1105   91.7391   15.5885 N.3     1  UNL1       -0.2934
     37 H          64.7359   92.2820   16.1840 H       1  UNL1        0.1236
@<TRIPOS>BOND
     1    18    19    1
     2    19    20    1
     3    19    21    1
     4    21    22    1
     5    22    23    1
     6    23    16    1
     7    16    15    1
     8    15    13    1
     9    13    14    2
    10    14    12    1
    11    12     1    1
    12     1    26    1
    13    27    26    1
    14    27    28    1
    15    28    29    1
    16    29    30   ar
    17    30    31   ar
    18    31    32   ar
    19    32    33   ar
    20    33    34   ar
    21    34    35    1
    22    35    36    1
    23     2     1    1
    24     2     3    1
    25     3     4    1
    26     4     5    1
    27     5     6    1
    28     6     7   ar
    29     7     8   ar
    30     8     9   ar
    31     9    10   ar
    32    10    11   ar
    33    23    24    1
    34    24    25    1
    35    25    19    1
    36    36    27    1
    37    11     2    1
    38    34    29   ar
    39    11     6   ar
    40    16    17    1
    41    36    37    1
@<TRIPOS>MOLECULE
*****
 37 41 0 0 0
SMALL
GASTEIGER

@<TRIPOS>ATOM
      1 N          63.8964   89.9461   13.5726 N.3     1  UNL1       -0.2641
      2 C          64.7868   91.1131   13.8813 C.3     1  UNL1        0.0981
      3 C          65.2910   91.3228   15.2783 C.3     1  UNL1        0.0224
      4 C          66.1813   92.4899   15.5871 C.3     1  UNL1        0.0065
      5 C          66.5674   93.4472   14.4988 C.3     1  UNL1        0.0277
      6 C          66.0631   93.2375   13.1018 C.ar    1  UNL1       -0.0073
      7 C          66.4492   94.1949   12.0134 C.ar    1  UNL1       -0.0015
      8 C          65.9450   93.9852   10.6164 C.ar    1  UNL1        0.0203
      9 C          65.0546   92.8181   10.3077 C.ar    1  UNL1        0.0985
     10 N          64.6686   91.8608   11.3959 N.ar    1  UNL1       -0.2471
     11 C          65.1728   92.0705   12.7931 C.ar    1  UNL1        0.0695
     12 C          64.2960   88.5645   13.9988 C.3     1  UNL1        0.0989
     13 C          63.9108   86.6121   15.6691 C.2     1  UNL1       -0.0122
     14 C          63.9714   88.0831   15.3819 C.2     1  UNL1       -0.0120
     15 C          64.1747   85.6225   14.5731 C.3     1  UNL1        0.0950
     16 N          63.0541   85.1717   13.6838 N.3     1  UNL1       -0.2948
     17 H          62.1878   85.4933   14.1157 H       1  UNL1        0.1235
     18 F          62.6611   79.8275   11.6523 F       1  UNL1       -0.2043
     19 C          62.5130   80.7949   12.7890 C.3     1  UNL1        0.2640
     20 F          62.0884   79.5270   13.4689 F       1  UNL1       -0.2043
     21 C          62.2173   81.3219   14.1620 C.3     1  UNL1        0.0679
     22 C          62.3977   82.7809   14.4602 C.3     1  UNL1        0.0213
     23 C          62.8737   83.7128   13.3855 C.3     1  UNL1        0.0546
     24 C          63.1693   83.1858   12.0126 C.3     1  UNL1        0.0213
     25 C          62.9890   81.7269   11.7144 C.3     1  UNL1        0.0679
     26 C          62.6066   90.1605   12.8376 C.3     1  UNL1        0.0888
     27 C          62.1571   89.1684   11.8062 C.3     1  UNL1        0.0748
     28 C          61.2444   89.6009   10.6972 C.3     1  UNL1        0.0432
     29 C          60.7950   88.6088    9.6657 C.ar    1  UNL1       -0.0234
     30 C          59.8822   89.0413    8.5568 C.ar    1  UNL1       -0.0045
     31 C          59.4328   88.0492    7.5254 C.ar    1  UNL1       -0.0003
     32 C          59.8962   86.6247    7.6030 C.ar    1  UNL1       -0.0003
     33 C          60.8089   86.1922    8.7120 C.ar    1  UNL1       -0.0032
     34 C          61.2583   87.1843    9.7433 C.ar    1  UNL1       -0.0103
     35 C          62.1711   86.7518   10.8524 C.3     1  UNL1        0.0953
     36 N          62.6205   87.7439   11.8838 N.3     1  UNL1       -0.2934
     37 H          63.6397   87.7635   11.8491 H       1  UNL1        0.1236
@<TRIPOS>BOND
     1    18    19    1
     2    19    20    1
     3    19    21    1
     4    21    22    1
     5    22    23    1
     6    23    16    1
     7    16    15    1
     8    15    13    1
     9    13    14    2
    10    14    12    1
    11    12     1    1
    12     1    26    1
    13    27    26    1
    14    27    28    1
    15    28    29    1
    16    29    30   ar
    17    30    31   ar
    18    31    32   ar
    19    32    33   ar
    20    33    34   ar
    21    34    35    1
    22    35    36    1
    23     2     1    1
    24     2     3    1
    25     3     4    1
    26     4     5    1
    27     5     6    1
    28     6     7   ar
    29     7     8   ar
    30     8     9   ar
    31     9    10   ar
    32    10    11   ar
    33    23    24    1
    34    24    25    1
    35    25    19    1
    36    36    27    1
    37    11     2    1
    38    34    29   ar
    39    11     6   ar
    40    16    17    1
    41    36    37    1
@<TRIPOS>MOLECULE
*****
 37 41 0 0 0
SMALL
GASTEIGER

@<TRIPOS>ATOM
      1 N          63.3595   88.7733   13.6771 N.3     1  UNL1       -0.2641
      2 C          62.9589   89.1255   12.2751 C.3     1  UNL1        0.0981
      3 C          63.1376   90.5279   11.7738 C.3     1  UNL1        0.0224
      4 C          62.7370   90.8800   10.3718 C.3     1  UNL1        0.0065
      5 C          62.1579   89.8297    9.4711 C.3     1  UNL1        0.0277
      6 C          61.9792   88.4273    9.9723 C.ar    1  UNL1       -0.0073
      7 C          61.4000   87.3769    9.0715 C.ar    1  UNL1       -0.0015
      8 C          61.2214   85.9745    9.5728 C.ar    1  UNL1        0.0203
      9 C          61.6219   85.6224   10.9748 C.ar    1  UNL1        0.0985
     10 N          62.2011   86.6727   11.8755 N.ar    1  UNL1       -0.2471
     11 C          62.3798   88.0752   11.3743 C.ar    1  UNL1        0.0695
     12 C          63.9584   87.4299   13.9710 C.3     1  UNL1        0.0989
     13 C          63.8722   85.8922   16.0634 C.2     1  UNL1       -0.0122
     14 C          64.4163   87.1007   15.3610 C.2     1  UNL1       -0.0120
     15 C          62.8702   85.0129   15.3758 C.3     1  UNL1        0.0950
     16 N          63.1842   83.5666   15.1318 N.3     1  UNL1       -0.2948
     17 H          64.0538   83.3666   15.6260 H       1  UNL1        0.1235
     18 F          63.2001   80.9670   10.0245 F       1  UNL1       -0.2043
     19 C          63.7040   82.0557   10.9250 C.3     1  UNL1        0.2640
     20 F          64.4734   82.3728    9.6770 F       1  UNL1       -0.2043
     21 C          64.4752   83.2546   11.3920 C.3     1  UNL1        0.0679
     22 C          64.3019   83.7582   12.7942 C.3     1  UNL1        0.0213
     23 C          63.3575   83.0629   13.7295 C.3     1  UNL1        0.0546
     24 C          62.5863   81.8641   13.2625 C.3     1  UNL1        0.0213
     25 C          62.7596   81.3605   11.8602 C.3     1  UNL1        0.0679
     26 C          63.1610   89.7646   14.7851 C.3     1  UNL1        0.0888
     27 C          64.2734   90.6959   15.1666 C.3     1  UNL1        0.0748
     28 C          65.5635   90.6763   14.4015 C.3     1  UNL1        0.0432
     29 C          66.6759   91.6075   14.7829 C.ar    1  UNL1       -0.0234
     30 C          67.9659   91.5880   14.0179 C.ar    1  UNL1       -0.0045
     31 C          69.0783   92.5192   14.3993 C.ar    1  UNL1       -0.0003
     32 C          68.9006   93.4699   15.5458 C.ar    1  UNL1       -0.0003
     33 C          67.6105   93.4895   16.3109 C.ar    1  UNL1       -0.0032
     34 C          66.4982   92.5583   15.9294 C.ar    1  UNL1       -0.0103
     35 C          65.2081   92.5778   16.6945 C.3     1  UNL1        0.0953
     36 N          64.0957   91.6466   16.3131 N.3     1  UNL1       -0.2934
     37 H          63.2879   92.2284   16.0907 H       1  UNL1        0.1236
@<TRIPOS>BOND
     1    18    19    1
     2    19    20    1
     3    19    21    1
     4    21    22    1
     5    22    23    1
     6    23    16    1
     7    16    15    1
     8    15    13    1
     9    13    14    2
    10    14    12    1
    11    12     1    1
    12     1    26    1
    13    27    26    1
    14    27    28    1
    15    28    29    1
    16    29    30   ar
    17    30    31   ar
    18    31    32   ar
    19    32    33   ar
    20    33    34   ar
    21    34    35    1
    22    35    36    1
    23     2     1    1
    24     2     3    1
    25     3     4    1
    26     4     5    1
    27     5     6    1
    28     6     7   ar
    29     7     8   ar
    30     8     9   ar
    31     9    10   ar
    32    10    11   ar
    33    23    24    1
    34    24    25    1
    35    25    19    1
    36    36    27    1
    37    11     2    1
    38    34    29   ar
    39    11     6   ar
    40    16    17    1
    41    36    37    1
@<TRIPOS>MOLECULE
*****
 37 41 0 0 0
SMALL
GASTEIGER

@<TRIPOS>ATOM
      1 N          63.5227   89.9204   12.8900 N.3     1  UNL1       -0.2641
      2 C          64.2770   91.1163   12.3893 C.3     1  UNL1        0.0981
      3 C          64.1741   91.5184   10.9479 C.3     1  UNL1        0.0224
      4 C          64.9285   92.7144   10.4472 C.3     1  UNL1        0.0065
      5 C          65.7858   93.5081   11.3879 C.3     1  UNL1        0.0277
      6 C          65.8887   93.1060   12.8293 C.ar    1  UNL1       -0.0073
      7 C          66.7461   93.8997   13.7700 C.ar    1  UNL1       -0.0015
      8 C          66.8490   93.4976   15.2114 C.ar    1  UNL1        0.0203
      9 C          66.0946   92.3017   15.7121 C.ar    1  UNL1        0.0985
     10 N          65.2373   91.5079   14.7715 N.ar    1  UNL1       -0.2471
     11 C          65.1343   91.9101   13.3300 C.ar    1  UNL1        0.0695
     12 C          64.2412   88.8438   13.6481 C.3     1  UNL1        0.0989
     13 C          63.8687   87.1441   15.5774 C.2     1  UNL1       -0.0122
     14 C          63.8730   88.5569   15.0737 C.2     1  UNL1       -0.0120
     15 C          64.2325   86.0181   14.6556 C.3     1  UNL1        0.0950
     16 N          63.2777   85.5903   13.5808 N.3     1  UNL1       -0.2948
     17 H          62.3727   86.0010   13.8104 H       1  UNL1        0.1235
     18 F          62.1147   79.9789   13.5434 F       1  UNL1       -0.2043
     19 C          62.5621   81.2135   12.8185 C.3     1  UNL1        0.2640
     20 F          62.6440   80.2127   11.7040 F       1  UNL1       -0.2043
     21 C          63.0380   82.1005   11.7063 C.3     1  UNL1        0.0679
     22 C          63.2765   83.5594   11.9604 C.3     1  UNL1        0.0213
     23 C          63.0392   84.1314   13.3267 C.3     1  UNL1        0.0546
     24 C          62.5633   83.2444   14.4388 C.3     1  UNL1        0.0213
     25 C          62.3248   81.7854   14.1846 C.3     1  UNL1        0.0679
     26 C          62.0498   89.8010   12.6327 C.3     1  UNL1        0.0888
     27 C          61.5562   89.0343   11.4416 C.3     1  UNL1        0.0748
     28 C          62.3756   87.9098   10.8814 C.3     1  UNL1        0.0432
     29 C          61.8821   87.1430    9.6903 C.ar    1  UNL1       -0.0234
     30 C          62.7015   86.0185    9.1301 C.ar    1  UNL1       -0.0045
     31 C          62.2079   85.2518    7.9390 C.ar    1  UNL1       -0.0003
     32 C          60.8949   85.6098    7.3082 C.ar    1  UNL1       -0.0003
     33 C          60.0755   86.7343    7.8684 C.ar    1  UNL1       -0.0032
     34 C          60.5691   87.5010    9.0594 C.ar    1  UNL1       -0.0103
     35 C          59.7496   88.6256    9.6197 C.3     1  UNL1        0.0953
     36 N          60.2432   89.3922   10.8107 N.3     1  UNL1       -0.2934
     37 H          59.5326   89.2984   11.5364 H       1  UNL1        0.1236
@<TRIPOS>BOND
     1    18    19    1
     2    19    20    1
     3    19    21    1
     4    21    22    1
     5    22    23    1
     6    23    16    1
     7    16    15    1
     8    15    13    1
     9    13    14    2
    10    14    12    1
    11    12     1    1
    12     1    26    1
    13    27    26    1
    14    27    28    1
    15    28    29    1
    16    29    30   ar
    17    30    31   ar
    18    31    32   ar
    19    32    33   ar
    20    33    34   ar
    21    34    35    1
    22    35    36    1
    23     2     1    1
    24     2     3    1
    25     3     4    1
    26     4     5    1
    27     5     6    1
    28     6     7   ar
    29     7     8   ar
    30     8     9   ar
    31     9    10   ar
    32    10    11   ar
    33    23    24    1
    34    24    25    1
    35    25    19    1
    36    36    27    1
    37    11     2    1
    38    34    29   ar
    39    11     6   ar
    40    16    17    1
    41    36    37    1
@<TRIPOS>MOLECULE
*****
 37 41 0 0 0
SMALL
GASTEIGER

@<TRIPOS>ATOM
      1 N          63.3370   88.9930   13.8962 N.3     1  UNL1       -0.2641
      2 C          63.2031   89.6856   12.5725 C.3     1  UNL1        0.0981
      3 C          64.0289   90.9020   12.2755 C.3     1  UNL1        0.0224
      4 C          63.8950   91.5946   10.9517 C.3     1  UNL1        0.0065
      5 C          62.9351   91.0709    9.9250 C.3     1  UNL1        0.0277
      6 C          62.1092   89.8544   10.2219 C.ar    1  UNL1       -0.0073
      7 C          61.1493   89.3306    9.1952 C.ar    1  UNL1       -0.0015
      8 C          60.3234   88.1142    9.4921 C.ar    1  UNL1        0.0203
      9 C          60.4574   87.4216   10.8159 C.ar    1  UNL1        0.0985
     10 N          61.4173   87.9454   11.8427 N.ar    1  UNL1       -0.2471
     11 C          62.2432   89.1618   11.5457 C.ar    1  UNL1        0.0695
     12 C          62.5226   89.4526   15.0690 C.3     1  UNL1        0.0989
     13 C          63.7799   90.5555   17.0571 C.2     1  UNL1       -0.0122
     14 C          63.0895   89.3677   16.4552 C.2     1  UNL1       -0.0120
     15 C          63.9035   91.8282   16.2730 C.3     1  UNL1        0.0950
     16 N          65.0842   92.7285   16.4856 N.3     1  UNL1       -0.2948
     17 H          64.7621   93.6814   16.3165 H       1  UNL1        0.1235
     18 F          70.2947   92.3920   14.1236 F       1  UNL1       -0.2043
     19 C          68.8150   92.1638   14.0335 C.3     1  UNL1        0.2640
     20 F          69.2405   91.6472   12.6911 F       1  UNL1       -0.2043
     21 C          67.4829   91.7561   13.4771 C.3     1  UNL1        0.0679
     22 C          66.2393   91.9444   14.2945 C.3     1  UNL1        0.0213
     23 C          66.3278   92.5403   15.6683 C.3     1  UNL1        0.0546
     24 C          67.6598   92.9479   16.2246 C.3     1  UNL1        0.0213
     25 C          68.9034   92.7597   15.4072 C.3     1  UNL1        0.0679
     26 C          64.2855   87.8407   14.0472 C.3     1  UNL1        0.0888
     27 C          63.7545   86.4428   14.1660 C.3     1  UNL1        0.0748
     28 C          63.6521   85.5734   12.9480 C.3     1  UNL1        0.0432
     29 C          63.1211   84.1755   13.0667 C.ar    1  UNL1       -0.0234
     30 C          63.0187   83.3061   11.8487 C.ar    1  UNL1       -0.0045
     31 C          62.4878   81.9083   11.9675 C.ar    1  UNL1       -0.0003
     32 C          62.0592   81.3799   13.3044 C.ar    1  UNL1       -0.0003
     33 C          62.1616   82.2493   14.5224 C.ar    1  UNL1       -0.0032
     34 C          62.6926   83.6471   14.4036 C.ar    1  UNL1       -0.0103
     35 C          62.7950   84.5166   15.6216 C.3     1  UNL1        0.0953
     36 N          63.3259   85.9144   15.5028 N.3     1  UNL1       -0.2934
     37 H          64.1380   85.9742   16.1171 H       1  UNL1        0.1236
@<TRIPOS>BOND
     1    18    19    1
     2    19    20    1
     3    19    21    1
     4    21    22    1
     5    22    23    1
     6    23    16    1
     7    16    15    1
     8    15    13    1
     9    13    14    2
    10    14    12    1
    11    12     1    1
    12     1    26    1
    13    27    26    1
    14    27    28    1
    15    28    29    1
    16    29    30   ar
    17    30    31   ar
    18    31    32   ar
    19    32    33   ar
    20    33    34   ar
    21    34    35    1
    22    35    36    1
    23     2     1    1
    24     2     3    1
    25     3     4    1
    26     4     5    1
    27     5     6    1
    28     6     7   ar
    29     7     8   ar
    30     8     9   ar
    31     9    10   ar
    32    10    11   ar
    33    23    24    1
    34    24    25    1
    35    25    19    1
    36    36    27    1
    37    11     2    1
    38    34    29   ar
    39    11     6   ar
    40    16    17    1
    41    36    37    1
@<TRIPOS>MOLECULE
*****
 37 41 0 0 0
SMALL
GASTEIGER

@<TRIPOS>ATOM
      1 N          63.9119   89.9317   13.4390 N.3     1  UNL1       -0.2641
      2 C          64.3363   90.7627   14.6135 C.3     1  UNL1        0.0981
      3 C          63.4304   90.9010   15.8009 C.3     1  UNL1        0.0224
      4 C          63.8548   91.7321   16.9753 C.3     1  UNL1        0.0065
      5 C          65.1852   92.4247   16.9623 C.3     1  UNL1        0.0277
      6 C          66.0912   92.2864   15.7749 C.ar    1  UNL1       -0.0073
      7 C          67.4216   92.9791   15.7618 C.ar    1  UNL1       -0.0015
      8 C          68.3276   92.8407   14.5744 C.ar    1  UNL1        0.0203
      9 C          67.9032   92.0097   13.4000 C.ar    1  UNL1        0.0985
     10 N          66.5728   91.3170   13.4130 N.ar    1  UNL1       -0.2471
     11 C          65.6667   91.4553   14.6005 C.ar    1  UNL1        0.0695
     12 C          63.9163   88.4350   13.5386 C.3     1  UNL1        0.0989
     13 C          64.4520   86.2733   14.8766 C.2     1  UNL1       -0.0122
     14 C          64.5271   87.7646   14.7334 C.2     1  UNL1       -0.0120
     15 C          63.7662   85.4525   13.8250 C.3     1  UNL1        0.0950
     16 N          63.0081   84.2178   14.2134 N.3     1  UNL1       -0.2948
     17 H          63.4089   83.8905   15.0924 H       1  UNL1        0.1235
     18 F          62.6144   79.2054   11.4634 F       1  UNL1       -0.2043
     19 C          62.8994   80.6778   11.4373 C.3     1  UNL1        0.2640
     20 F          63.1288   80.3424    9.9934 F       1  UNL1       -0.2043
     21 C          63.2640   82.0338   10.9096 C.3     1  UNL1        0.0679
     22 C          63.3002   83.2138   11.8350 C.3     1  UNL1        0.0213
     23 C          62.9718   83.0378   13.2880 C.3     1  UNL1        0.0546
     24 C          62.6072   81.6819   13.8156 C.3     1  UNL1        0.0213
     25 C          62.5710   80.5019   12.8903 C.3     1  UNL1        0.0679
     26 C          63.4831   90.5973   12.1651 C.3     1  UNL1        0.0888
     27 C          62.4505   89.9493   11.2910 C.3     1  UNL1        0.0748
     28 C          62.7477   88.6389   10.6242 C.3     1  UNL1        0.0432
     29 C          61.7151   87.9910    9.7501 C.ar    1  UNL1       -0.0234
     30 C          62.0123   86.6806    9.0834 C.ar    1  UNL1       -0.0045
     31 C          60.9797   86.0327    8.2093 C.ar    1  UNL1       -0.0003
     32 C          59.6500   86.6952    8.0021 C.ar    1  UNL1       -0.0003
     33 C          59.3528   88.0055    8.6688 C.ar    1  UNL1       -0.0032
     34 C          60.3854   88.6534    9.5429 C.ar    1  UNL1       -0.0103
     35 C          60.0882   89.9638   10.2097 C.3     1  UNL1        0.0953
     36 N          61.1208   90.6117   11.0837 N.3     1  UNL1       -0.2934
     37 H          60.6992   90.7209   12.0061 H       1  UNL1        0.1236
@<TRIPOS>BOND
     1    18    19    1
     2    19    20    1
     3    19    21    1
     4    21    22    1
     5    22    23    1
     6    23    16    1
     7    16    15    1
     8    15    13    1
     9    13    14    2
    10    14    12    1
    11    12     1    1
    12     1    26    1
    13    27    26    1
    14    27    28    1
    15    28    29    1
    16    29    30   ar
    17    30    31   ar
    18    31    32   ar
    19    32    33   ar
    20    33    34   ar
    21    34    35    1
    22    35    36    1
    23     2     1    1
    24     2     3    1
    25     3     4    1
    26     4     5    1
    27     5     6    1
    28     6     7   ar
    29     7     8   ar
    30     8     9   ar
    31     9    10   ar
    32    10    11   ar
    33    23    24    1
    34    24    25    1
    35    25    19    1
    36    36    27    1
    37    11     2    1
    38    34    29   ar
    39    11     6   ar
    40    16    17    1
    41    36    37    1
@<TRIPOS>MOLECULE
*****
 37 41 0 0 0
SMALL
GASTEIGER

@<TRIPOS>ATOM
      1 N          63.5469   89.6670   12.8780 N.3     1  UNL1       -0.2641
      2 C          64.2217   90.8982   12.3501 C.3     1  UNL1        0.0981
      3 C          64.0219   91.3088   10.9213 C.3     1  UNL1        0.0224
      4 C          64.6967   92.5400   10.3933 C.3     1  UNL1        0.0065
      5 C          65.5714   93.3606   11.2942 C.3     1  UNL1        0.0277
      6 C          65.7712   92.9500   12.7229 C.ar    1  UNL1       -0.0073
      7 C          66.6459   93.7707   13.6238 C.ar    1  UNL1       -0.0015
      8 C          66.8457   93.3601   15.0526 C.ar    1  UNL1        0.0203
      9 C          66.1709   92.1289   15.5806 C.ar    1  UNL1        0.0985
     10 N          65.2962   91.3083   14.6797 N.ar    1  UNL1       -0.2471
     11 C          65.0964   91.7188   13.2509 C.ar    1  UNL1        0.0695
     12 C          62.2199   89.2423   12.3224 C.3     1  UNL1        0.0989
     13 C          60.0382   90.2311   11.3162 C.2     1  UNL1       -0.0122
     14 C          61.0332   90.1528   12.4359 C.2     1  UNL1       -0.0120
     15 C          60.2299   89.3990   10.0829 C.3     1  UNL1        0.0950
     16 N          59.8682   87.9434   10.0966 N.3     1  UNL1       -0.2948
     17 H          60.0493   87.6039   11.0413 H       1  UNL1        0.1235
     18 F          61.6135   84.2748    6.0547 F       1  UNL1       -0.2043
     19 C          61.9099   85.0911    7.2777 C.3     1  UNL1        0.2640
     20 F          63.2489   84.4507    7.0611 F       1  UNL1       -0.2043
     21 C          62.6713   85.6850    8.4256 C.3     1  UNL1        0.0679
     22 C          61.9908   86.6357    9.3652 C.3     1  UNL1        0.0213
     23 C          60.5488   86.9926    9.1570 C.3     1  UNL1        0.0546
     24 C          59.7874   86.3987    8.0092 C.3     1  UNL1        0.0213
     25 C          60.4679   85.4479    7.0696 C.3     1  UNL1        0.0679
     26 C          64.1990   88.8605   13.9616 C.3     1  UNL1        0.0888
     27 C          63.8616   87.4076   14.1215 C.3     1  UNL1        0.0748
     28 C          63.5975   86.5614   12.9115 C.3     1  UNL1        0.0432
     29 C          63.2601   85.1086   13.0715 C.ar    1  UNL1       -0.0234
     30 C          62.9960   84.2624   11.8615 C.ar    1  UNL1       -0.0045
     31 C          62.6586   82.8096   12.0214 C.ar    1  UNL1       -0.0003
     32 C          62.5854   82.2030   13.3914 C.ar    1  UNL1       -0.0003
     33 C          62.8496   83.0493   14.6014 C.ar    1  UNL1       -0.0032
     34 C          63.1869   84.5020   14.4414 C.ar    1  UNL1       -0.0103
     35 C          63.4511   85.3483   15.6514 C.3     1  UNL1        0.0953
     36 N          63.7885   86.8011   15.4915 N.3     1  UNL1       -0.2934
     37 H          64.7013   86.9408   15.9245 H       1  UNL1        0.1236
@<TRIPOS>BOND
     1    18    19    1
     2    19    20    1
     3    19    21    1
     4    21    22    1
     5    22    23    1
     6    23    16    1
     7    16    15    1
     8    15    13    1
     9    13    14    2
    10    14    12    1
    11    12     1    1
    12     1    26    1
    13    27    26    1
    14    27    28    1
    15    28    29    1
    16    29    30   ar
    17    30    31   ar
    18    31    32   ar
    19    32    33   ar
    20    33    34   ar
    21    34    35    1
    22    35    36    1
    23     2     1    1
    24     2     3    1
    25     3     4    1
    26     4     5    1
    27     5     6    1
    28     6     7   ar
    29     7     8   ar
    30     8     9   ar
    31     9    10   ar
    32    10    11   ar
    33    23    24    1
    34    24    25    1
    35    25    19    1
    36    36    27    1
    37    11     2    1
    38    34    29   ar
    39    11     6   ar
    40    16    17    1
    41    36    37    1
@<TRIPOS>MOLECULE
*****
 37 41 0 0 0
SMALL
GASTEIGER

@<TRIPOS>ATOM
      1 N          63.3788   88.3380   13.2169 N.3     1  UNL1       -0.2641
      2 C          62.7043   87.5544   12.1302 C.3     1  UNL1        0.0981
      3 C          62.9184   86.0731   12.0302 C.3     1  UNL1        0.0224
      4 C          62.2439   85.2895   10.9436 C.3     1  UNL1        0.0065
      5 C          61.3552   85.9870    9.9568 C.3     1  UNL1        0.0277
      6 C          61.1411   87.4682   10.0568 C.ar    1  UNL1       -0.0073
      7 C          60.2524   88.1659    9.0701 C.ar    1  UNL1       -0.0015
      8 C          60.0383   89.6471    9.1700 C.ar    1  UNL1        0.0203
      9 C          60.7128   90.4308   10.2567 C.ar    1  UNL1        0.0985
     10 N          61.6015   89.7332   11.2434 N.ar    1  UNL1       -0.2471
     11 C          61.8156   88.2519   11.1435 C.ar    1  UNL1        0.0695
     12 C          64.1818   87.6277   14.2660 C.3     1  UNL1        0.0989
     13 C          63.6484   86.0322   16.2458 C.2     1  UNL1       -0.0122
     14 C          63.5993   87.3987   15.6292 C.2     1  UNL1       -0.0120
     15 C          64.2800   84.8947   15.4993 C.3     1  UNL1        0.0950
     16 N          63.5014   83.6372   15.2498 N.3     1  UNL1       -0.2948
     17 H          63.8537   82.9381   15.9037 H       1  UNL1        0.1235
     18 F          62.7501   80.7653   10.3477 F       1  UNL1       -0.2043
     19 C          63.5424   81.7374   11.1706 C.3     1  UNL1        0.2640
     20 F          64.3558   81.7393    9.9103 F       1  UNL1       -0.2043
     21 C          64.6173   82.7102   11.5558 C.3     1  UNL1        0.0679
     22 C          64.6037   83.3435   12.9155 C.3     1  UNL1        0.0213
     23 C          63.5151   83.0039   13.8901 C.3     1  UNL1        0.0546
     24 C          62.4402   82.0312   13.5049 C.3     1  UNL1        0.0213
     25 C          62.4539   81.3979   12.1452 C.3     1  UNL1        0.0679
     26 C          63.2503   89.8320   13.2545 C.3     1  UNL1        0.0888
     27 C          64.2337   90.6499   14.0381 C.3     1  UNL1        0.0748
     28 C          65.6201   90.8662   13.5080 C.3     1  UNL1        0.0432
     29 C          66.6036   91.6841   14.2916 C.ar    1  UNL1       -0.0234
     30 C          67.9900   91.9004   13.7615 C.ar    1  UNL1       -0.0045
     31 C          68.9734   92.7183   14.5450 C.ar    1  UNL1       -0.0003
     32 C          68.5704   93.3199   15.8587 C.ar    1  UNL1       -0.0003
     33 C          67.1840   93.1035   16.3888 C.ar    1  UNL1       -0.0032
     34 C          66.2006   92.2857   15.6052 C.ar    1  UNL1       -0.0103
     35 C          64.8141   92.0693   16.1353 C.3     1  UNL1        0.0953
     36 N          63.8307   91.2515   15.3518 N.3     1  UNL1       -0.2934
     37 H          63.0287   91.8537   15.1662 H       1  UNL1        0.1236
@<TRIPOS>BOND
     1    18    19    1
     2    19    20    1
     3    19    21    1
     4    21    22    1
     5    22    23    1
     6    23    16    1
     7    16    15    1
     8    15    13    1
     9    13    14    2
    10    14    12    1
    11    12     1    1
    12     1    26    1
    13    27    26    1
    14    27    28    1
    15    28    29    1
    16    29    30   ar
    17    30    31   ar
    18    31    32   ar
    19    32    33   ar
    20    33    34   ar
    21    34    35    1
    22    35    36    1
    23     2     1    1
    24     2     3    1
    25     3     4    1
    26     4     5    1
    27     5     6    1
    28     6     7   ar
    29     7     8   ar
    30     8     9   ar
    31     9    10   ar
    32    10    11   ar
    33    23    24    1
    34    24    25    1
    35    25    19    1
    36    36    27    1
    37    11     2    1
    38    34    29   ar
    39    11     6   ar
    40    16    17    1
    41    36    37    1
@<TRIPOS>MOLECULE
*****
 37 41 0 0 0
SMALL
GASTEIGER

@<TRIPOS>ATOM
      1 N          63.8335   88.8472   14.1319 N.3     1  UNL1       -0.2641
      2 C          64.1375   90.0403   14.9886 C.3     1  UNL1        0.0981
      3 C          63.4729   90.1933   16.3246 C.3     1  UNL1        0.0224
      4 C          63.7769   91.3864   17.1813 C.3     1  UNL1        0.0065
      5 C          64.7456   92.4266   16.7021 C.3     1  UNL1        0.0277
      6 C          65.4102   92.2736   15.3662 C.ar    1  UNL1       -0.0073
      7 C          66.3789   93.3138   14.8869 C.ar    1  UNL1       -0.0015
      8 C          67.0436   93.1609   13.5509 C.ar    1  UNL1        0.0203
      9 C          66.7395   91.9677   12.6942 C.ar    1  UNL1        0.0985
     10 N          65.7708   90.9276   13.1734 N.ar    1  UNL1       -0.2471
     11 C          65.1062   91.0805   14.5094 C.ar    1  UNL1        0.0695
     12 C          62.7200   88.9084   13.1288 C.3     1  UNL1        0.0989
     13 C          61.7571   89.8433   10.9041 C.2     1  UNL1       -0.0122
     14 C          62.9165   89.6392   11.8336 C.2     1  UNL1       -0.0120
     15 C          60.4010   89.3166   11.2698 C.3     1  UNL1        0.0950
     16 N          60.1232   87.8445   11.1959 N.3     1  UNL1       -0.2948
     17 H          60.4633   87.4366   12.0667 H       1  UNL1        0.1235
     18 F          63.0920   84.5987    7.5226 F       1  UNL1       -0.2043
     19 C          61.8610   85.3921    7.8469 C.3     1  UNL1        0.2640
     20 F          61.5175   84.9330    6.4608 F       1  UNL1       -0.2043
     21 C          60.5106   86.0261    7.6897 C.3     1  UNL1        0.0679
     22 C          59.9314   86.8435    8.8060 C.3     1  UNL1        0.0213
     23 C          60.7025   87.0270   10.0796 C.3     1  UNL1        0.0546
     24 C          62.0528   86.3931   10.2367 C.3     1  UNL1        0.0213
     25 C          62.6320   85.5756    9.1204 C.3     1  UNL1        0.0679
     26 C          64.6429   87.5929   14.2783 C.3     1  UNL1        0.0888
     27 C          63.9563   86.2611   14.3484 C.3     1  UNL1        0.0748
     28 C          63.9211   85.3709   13.1417 C.3     1  UNL1        0.0432
     29 C          63.2345   84.0391   13.2118 C.ar    1  UNL1       -0.0234
     30 C          63.1993   83.1489   12.0050 C.ar    1  UNL1       -0.0045
     31 C          62.5128   81.8172   12.0753 C.ar    1  UNL1       -0.0003
     32 C          61.8614   81.3755   13.3522 C.ar    1  UNL1       -0.0003
     33 C          61.8966   82.2657   14.5590 C.ar    1  UNL1       -0.0032
     34 C          62.5832   83.5975   14.4888 C.ar    1  UNL1       -0.0103
     35 C          62.6184   84.4877   15.6956 C.3     1  UNL1        0.0953
     36 N          63.3050   85.8194   15.6254 N.3     1  UNL1       -0.2934
     37 H          64.0324   85.8137   16.3404 H       1  UNL1        0.1236
@<TRIPOS>BOND
     1    18    19    1
     2    19    20    1
     3    19    21    1
     4    21    22    1
     5    22    23    1
     6    23    16    1
     7    16    15    1
     8    15    13    1
     9    13    14    2
    10    14    12    1
    11    12     1    1
    12     1    26    1
    13    27    26    1
    14    27    28    1
    15    28    29    1
    16    29    30   ar
    17    30    31   ar
    18    31    32   ar
    19    32    33   ar
    20    33    34   ar
    21    34    35    1
    22    35    36    1
    23     2     1    1
    24     2     3    1
    25     3     4    1
    26     4     5    1
    27     5     6    1
    28     6     7   ar
    29     7     8   ar
    30     8     9   ar
    31     9    10   ar
    32    10    11   ar
    33    23    24    1
    34    24    25    1
    35    25    19    1
    36    36    27    1
    37    11     2    1
    38    34    29   ar
    39    11     6   ar
    40    16    17    1
    41    36    37    1
