@<TRIPOS>MOLECULE
*****
 42 47 0 0 0
SMALL
GASTEIGER

@<TRIPOS>ATOM
      1 C          62.6658   86.3105   16.7976 C.2     1  UNL1        0.2252
      2 O          61.8961   86.4234   18.0801 O.2     1  UNL1       -0.2749
      3 N          63.2725   87.5339   16.1769 N.am    1  UNL1       -0.2794
      4 C          63.1095   88.8701   16.8387 C.3     1  UNL1        0.0953
      5 C          63.7162   90.0935   16.2181 C.3     1  UNL1        0.0442
      6 C          64.4860   89.9806   14.9355 C.3     1  UNL1        0.0933
      7 C          64.6489   88.6445   14.2738 C.3     1  UNL1        0.0442
      8 C          64.0422   87.4211   14.8944 C.3     1  UNL1        0.0953
      9 N          65.0927   91.2040   14.3148 N.ar    1  UNL1       -0.2817
     10 C          64.7312   91.7877   12.9812 C.ar    1  UNL1        0.3315
     11 O          63.6995   91.2505   12.0341 O.2     1  UNL1       -0.2463
     12 N          65.5825   93.0029   12.7610 N.ar    1  UNL1       -0.2799
     13 C          66.4702   93.1703   13.9586 C.ar    1  UNL1        0.0819
     14 C          67.5150   94.1913   14.2986 C.ar    1  UNL1        0.0484
     15 C          68.2571   94.1006   15.5990 C.ar    1  UNL1        0.1417
     16 F          69.3019   95.1218   15.9391 F       1  UNL1       -0.2041
     17 C          67.9543   92.9888   16.5593 C.ar    1  UNL1        0.0312
     18 C          66.9095   91.9677   16.2193 C.ar    1  UNL1        0.0211
     19 C          66.1674   92.0585   14.9189 C.ar    1  UNL1        0.0798
     20 C          65.5517   93.8943   11.5550 C.3     1  UNL1        0.1105
     21 C          66.5509   93.7003   10.4532 C.3     1  UNL1        0.0228
     22 C          66.7371   94.7653    9.4134 C.3     1  UNL1        0.0019
     23 C          67.7362   94.5713    8.3116 C.3     1  UNL1        0.0001
     24 C          68.5493   93.3123    8.2496 C.3     1  UNL1        0.0000
     25 C          68.3631   92.2473    9.2893 C.3     1  UNL1        0.0001
     26 C          67.3640   92.4413   10.3911 C.3     1  UNL1        0.0019
     27 N          63.1547   82.3019   14.8121 N.3     1  UNL1       -0.2689
     28 C          61.7967   82.9322   14.9051 C.3     1  UNL1        0.0729
     29 C          61.6337   84.2684   15.5669 C.3     1  UNL1        0.0264
     30 C          62.8287   84.9743   16.1358 C.3     1  UNL1        0.0795
     31 C          64.1867   84.3441   16.0429 C.3     1  UNL1        0.0264
     32 C          64.3497   83.0079   15.3810 C.3     1  UNL1        0.0729
     33 C          63.3177   80.9657   14.1503 C.3     1  UNL1        0.0993
     34 N          62.4571   78.1659    9.8584 N.pl3   1  UNL1       -0.3426
     35 C          62.8482   79.4598   10.5087 C.ar    1  UNL1        0.1251
     36 C          62.8874   79.5659   12.0044 C.ar    1  UNL1        0.0310
     37 C          63.2786   80.8598   12.6546 C.ar    1  UNL1       -0.0018
     38 C          63.6306   82.0477   11.8091 C.ar    1  UNL1        0.0179
     39 C          63.5915   81.9417   10.3134 C.ar    1  UNL1        0.1000
     40 N          63.2003   80.6477    9.6632 N.ar    1  UNL1       -0.2296
     41 H          62.2260   77.3862   10.4134 H       1  UNL1        0.1437
     42 H          62.4314   78.0964    8.8767 H       1  UNL1        0.1437
@<TRIPOS>BOND
     1    34    35    1
     2    35    36   ar
     3    36    37   ar
     4    37    33    1
     5    33    27    1
     6    27    28    1
     7    28    29    1
     8    29    30    1
     9    30     1    1
    10     1     2    2
    11     1     3   am
    12     3     4    1
    13     4     5    1
    14     5     6    1
    15     6     9    1
    16     9    10   ar
    17    10    11    2
    18    10    12   ar
    19    12    20    1
    20    20    21    1
    21    21    22    1
    22    22    23    1
    23    23    24    1
    24    24    25    1
    25    25    26    1
    26    12    13   ar
    27    13    14   ar
    28    14    15   ar
    29    15    16    1
    30    15    17   ar
    31    17    18   ar
    32    18    19   ar
    33     6     7    1
    34     7     8    1
    35    30    31    1
    36    31    32    1
    37    37    38   ar
    38    38    39   ar
    39    39    40   ar
    40    40    35   ar
    41    32    27    1
    42     8     3    1
    43    19     9   ar
    44    26    21    1
    45    19    13   ar
    46    34    41    1
    47    34    42    1
@<TRIPOS>MOLECULE
*****
 42 47 0 0 0
SMALL
GASTEIGER

@<TRIPOS>ATOM
      1 C          59.2199   88.6022    7.2470 C.2     1  UNL1        0.2252
      2 O          58.2777   87.4693    6.9660 O.2     1  UNL1       -0.2749
      3 N          60.0709   88.5810    8.4821 N.am    1  UNL1       -0.2794
      4 C          59.9797   87.4271    9.4361 C.3     1  UNL1        0.0953
      5 C          60.8307   87.4060   10.6712 C.3     1  UNL1        0.0442
      6 C          61.7729   88.5389   10.9522 C.3     1  UNL1        0.0933
      7 C          61.8641   89.6927    9.9982 C.3     1  UNL1        0.0442
      8 C          61.0131   89.7138    8.7631 C.3     1  UNL1        0.0953
      9 N          62.6239   88.5178   12.1873 N.ar    1  UNL1       -0.2817
     10 C          63.0338   89.7127   12.9961 C.ar    1  UNL1        0.3315
     11 O          62.6647   91.1385   12.7119 O.2     1  UNL1       -0.2463
     12 N          63.8776   89.2314   14.1390 N.ar    1  UNL1       -0.2799
     13 C          63.9892   87.7390   14.0366 C.ar    1  UNL1        0.0819
     14 C          64.6963   86.7248   14.8859 C.ar    1  UNL1        0.0484
     15 C          64.6285   85.2695   14.5289 C.ar    1  UNL1        0.1417
     16 F          65.3356   84.2552   15.3782 F       1  UNL1       -0.2041
     17 C          63.8537   84.8285   13.3226 C.ar    1  UNL1        0.0312
     18 C          63.1466   85.8427   12.4733 C.ar    1  UNL1        0.0211
     19 C          63.2144   87.2980   12.8303 C.ar    1  UNL1        0.0798
     20 C          64.5005   90.0914   15.1984 C.3     1  UNL1        0.1105
     21 C          65.4739   91.1665   14.8153 C.3     1  UNL1        0.0228
     22 C          65.9123   91.3073   13.3877 C.3     1  UNL1        0.0019
     23 C          66.8856   92.3823   13.0045 C.3     1  UNL1        0.0001
     24 C          67.4207   93.3166   14.0490 C.3     1  UNL1        0.0000
     25 C          66.9823   93.1758   15.4766 C.3     1  UNL1        0.0001
     26 C          66.0089   92.1008   15.8598 C.3     1  UNL1        0.0019
     27 N          59.4936   92.0639    4.3849 N.3     1  UNL1       -0.2689
     28 C          58.1720   91.6942    4.9908 C.3     1  UNL1        0.0729
     29 C          58.0808   90.5403    5.9448 C.3     1  UNL1        0.0264
     30 C          59.3111   89.7561    6.2930 C.3     1  UNL1        0.0795
     31 C          60.6327   90.1256    5.6872 C.3     1  UNL1        0.0264
     32 C          60.7239   91.2795    4.7332 C.3     1  UNL1        0.0729
     33 C          59.5848   93.2177    3.4309 C.3     1  UNL1        0.0993
     34 N          58.8789   92.3481   -1.6431 N.pl3   1  UNL1       -0.3426
     35 C          59.7978   92.5773   -0.4799 C.ar    1  UNL1        0.1251
     36 C          59.2319   92.7829    0.8940 C.ar    1  UNL1        0.0310
     37 C          60.1509   93.0122    2.0571 C.ar    1  UNL1       -0.0018
     38 C          61.6358   93.0359    1.8464 C.ar    1  UNL1        0.0179
     39 C          62.2017   92.8303    0.4726 C.ar    1  UNL1        0.1000
     40 N          61.2828   92.6011   -0.6905 N.ar    1  UNL1       -0.2296
     41 H          57.9043   92.3325   -1.5049 H       1  UNL1        0.1437
     42 H          59.2504   92.2131   -2.5448 H       1  UNL1        0.1437
@<TRIPOS>BOND
     1    34    35    1
     2    35    36   ar
     3    36    37   ar
     4    37    33    1
     5    33    27    1
     6    27    28    1
     7    28    29    1
     8    29    30    1
     9    30     1    1
    10     1     2    2
    11     1     3   am
    12     3     4    1
    13     4     5    1
    14     5     6    1
    15     6     9    1
    16     9    10   ar
    17    10    11    2
    18    10    12   ar
    19    12    20    1
    20    20    21    1
    21    21    22    1
    22    22    23    1
    23    23    24    1
    24    24    25    1
    25    25    26    1
    26    12    13   ar
    27    13    14   ar
    28    14    15   ar
    29    15    16    1
    30    15    17   ar
    31    17    18   ar
    32    18    19   ar
    33     6     7    1
    34     7     8    1
    35    30    31    1
    36    31    32    1
    37    37    38   ar
    38    38    39   ar
    39    39    40   ar
    40    40    35   ar
    41    32    27    1
    42     8     3    1
    43    19     9   ar
    44    26    21    1
    45    19    13   ar
    46    34    41    1
    47    34    42    1
@<TRIPOS>MOLECULE
*****
 42 47 0 0 0
SMALL
GASTEIGER

@<TRIPOS>ATOM
      1 C          58.9898   88.9035    6.9976 C.2     1  UNL1        0.2252
      2 O          57.8880   87.9173    6.7461 O.2     1  UNL1       -0.2749
      3 N          59.8822   88.7424    8.1925 N.am    1  UNL1       -0.2794
      4 C          59.6727   87.5951    9.1358 C.3     1  UNL1        0.0953
      5 C          60.5650   87.4340   10.3307 C.3     1  UNL1        0.0442
      6 C          61.6670   88.4202   10.5822 C.3     1  UNL1        0.0933
      7 C          61.8764   89.5675    9.6389 C.3     1  UNL1        0.0442
      8 C          60.9840   89.7286    8.4441 C.3     1  UNL1        0.0953
      9 N          62.5594   88.2591   11.7771 N.ar    1  UNL1       -0.2817
     10 C          62.8565   86.9724   12.4885 C.ar    1  UNL1        0.3315
     11 O          62.3135   85.6209   12.1299 O.2     1  UNL1       -0.2463
     12 N          63.7920   87.2745   13.6214 N.ar    1  UNL1       -0.2799
     13 C          64.0731   88.7479   13.6102 C.ar    1  UNL1        0.0819
     14 C          64.9243   89.6141   14.4906 C.ar    1  UNL1        0.0484
     15 C          65.0136   91.0887   14.2312 C.ar    1  UNL1        0.1417
     16 F          65.8648   91.9550   15.1117 F       1  UNL1       -0.2041
     17 C          64.2518   91.6973   13.0914 C.ar    1  UNL1        0.0312
     18 C          63.4006   90.8311   12.2109 C.ar    1  UNL1        0.0211
     19 C          63.3112   89.3565   12.4703 C.ar    1  UNL1        0.0798
     20 C          64.3488   86.2782   14.5947 C.3     1  UNL1        0.1105
     21 C          63.9715   84.8305   14.4845 C.3     1  UNL1        0.0228
     22 C          62.8044   84.2983   15.2620 C.3     1  UNL1        0.0019
     23 C          62.4271   82.8508   15.1518 C.3     1  UNL1        0.0001
     24 C          63.2170   81.9354   14.2641 C.3     1  UNL1        0.0000
     25 C          64.3841   82.4676   13.4865 C.3     1  UNL1        0.0001
     26 C          64.7614   83.9151   13.5967 C.3     1  UNL1        0.0019
     27 N          59.6183   92.3454    4.1677 N.3     1  UNL1       -0.2689
     28 C          58.2458   92.0497    4.6959 C.3     1  UNL1        0.0729
     29 C          58.0363   90.9024    5.6392 C.3     1  UNL1        0.0264
     30 C          59.1993   90.0508    6.0543 C.3     1  UNL1        0.0795
     31 C          60.5717   90.3465    5.5262 C.3     1  UNL1        0.0264
     32 C          60.7813   91.4938    4.5829 C.3     1  UNL1        0.0729
     33 C          59.8278   93.4927    3.2244 C.3     1  UNL1        0.0993
     34 N          58.5515   92.2661   -1.6609 N.pl3   1  UNL1       -0.3426
     35 C          59.5920   92.6181   -0.6393 C.ar    1  UNL1        0.1251
     36 C          59.1897   92.8794    0.7818 C.ar    1  UNL1        0.0310
     37 C          60.2302   93.2314    1.8033 C.ar    1  UNL1       -0.0018
     38 C          61.6731   93.3221    1.4035 C.ar    1  UNL1        0.0179
     39 C          62.0755   93.0607   -0.0177 C.ar    1  UNL1        0.1000
     40 N          61.0349   92.7087   -1.0391 N.ar    1  UNL1       -0.2296
     41 H          57.6044   92.2066   -1.3986 H       1  UNL1        0.1437
     42 H          58.8156   92.0946   -2.5936 H       1  UNL1        0.1437
@<TRIPOS>BOND
     1    34    35    1
     2    35    36   ar
     3    36    37   ar
     4    37    33    1
     5    33    27    1
     6    27    28    1
     7    28    29    1
     8    29    30    1
     9    30     1    1
    10     1     2    2
    11     1     3   am
    12     3     4    1
    13     4     5    1
    14     5     6    1
    15     6     9    1
    16     9    10   ar
    17    10    11    2
    18    10    12   ar
    19    12    20    1
    20    20    21    1
    21    21    22    1
    22    22    23    1
    23    23    24    1
    24    24    25    1
    25    25    26    1
    26    12    13   ar
    27    13    14   ar
    28    14    15   ar
    29    15    16    1
    30    15    17   ar
    31    17    18   ar
    32    18    19   ar
    33     6     7    1
    34     7     8    1
    35    30    31    1
    36    31    32    1
    37    37    38   ar
    38    38    39   ar
    39    39    40   ar
    40    40    35   ar
    41    32    27    1
    42     8     3    1
    43    19     9   ar
    44    26    21    1
    45    19    13   ar
    46    34    41    1
    47    34    42    1
@<TRIPOS>MOLECULE
*****
 42 47 0 0 0
SMALL
GASTEIGER

@<TRIPOS>ATOM
      1 C          58.3402   90.1079    6.3211 C.2     1  UNL1        0.2252
      2 O          56.8406   90.0900    6.2930 O.2     1  UNL1       -0.2749
      3 N          59.1009   90.8674    5.2749 N.am    1  UNL1       -0.2794
      4 C          58.3619   91.6091    4.2007 C.3     1  UNL1        0.0953
      5 C          59.1226   92.3687    3.1546 C.3     1  UNL1        0.0442
      6 C          60.6223   92.3865    3.1826 C.3     1  UNL1        0.0933
      7 C          61.3612   91.6449    4.2567 C.3     1  UNL1        0.0442
      8 C          60.6005   90.8853    5.3029 C.3     1  UNL1        0.0953
      9 N          61.3830   93.1461    2.1364 N.ar    1  UNL1       -0.2817
     10 C          62.8716   93.1423    1.9519 C.ar    1  UNL1        0.3315
     11 O          63.8609   92.3783    2.7811 O.2     1  UNL1       -0.2463
     12 N          63.1971   94.0367    0.7925 N.ar    1  UNL1       -0.2799
     13 C          61.9098   94.5932    0.2606 C.ar    1  UNL1        0.0819
     14 C          61.6136   95.5301   -0.8728 C.ar    1  UNL1        0.0484
     15 C          60.1963   95.9165   -1.1756 C.ar    1  UNL1        0.1417
     16 F          59.9001   96.8534   -2.3090 F       1  UNL1       -0.2041
     17 C          59.0751   95.3661   -0.3450 C.ar    1  UNL1        0.0312
     18 C          59.3712   94.4292    0.7884 C.ar    1  UNL1        0.0211
     19 C          60.7885   94.0428    1.0912 C.ar    1  UNL1        0.0798
     20 C          64.5692   94.3241    0.2588 C.3     1  UNL1        0.1105
     21 C          64.7357   94.8611   -1.1319 C.3     1  UNL1        0.0228
     22 C          64.3210   94.0316   -2.3109 C.3     1  UNL1        0.0019
     23 C          64.4875   94.5685   -3.7015 C.3     1  UNL1        0.0001
     24 C          65.0686   95.9350   -3.9132 C.3     1  UNL1        0.0000
     25 C          65.4833   96.7646   -2.7343 C.3     1  UNL1        0.0001
     26 C          65.3168   96.2277   -1.3436 C.3     1  UNL1        0.0019
     27 N          60.5571   87.8828    9.5435 N.3     1  UNL1       -0.2689
     28 C          59.7541   87.1269    8.5266 C.3     1  UNL1        0.0729
     29 C          59.0152   87.8686    7.4524 C.3     1  UNL1        0.0264
     30 C          59.0792   89.3662    7.3952 C.3     1  UNL1        0.0795
     31 C          59.8820   90.1220    8.4121 C.3     1  UNL1        0.0264
     32 C          60.6210   89.3803    9.4863 C.3     1  UNL1        0.0729
     33 C          61.2960   87.1411   10.6177 C.3     1  UNL1        0.0993
     34 N          63.5214   82.6476   11.9800 N.pl3   1  UNL1       -0.3426
     35 C          63.2432   83.6987   10.9467 C.ar    1  UNL1        0.1251
     36 C          62.4087   84.8944   11.2988 C.ar    1  UNL1        0.0310
     37 C          62.1305   85.9455   10.2655 C.ar    1  UNL1       -0.0018
     38 C          62.6869   85.8010    8.8800 C.ar    1  UNL1        0.0179
     39 C          63.5214   84.6054    8.5278 C.ar    1  UNL1        0.1000
     40 N          63.7995   83.5542    9.5612 N.ar    1  UNL1       -0.2296
     41 H          63.1563   82.7424   12.8893 H       1  UNL1        0.1437
     42 H          64.0692   81.8628   11.7488 H       1  UNL1        0.1437
@<TRIPOS>BOND
     1    34    35    1
     2    35    36   ar
     3    36    37   ar
     4    37    33    1
     5    33    27    1
     6    27    28    1
     7    28    29    1
     8    29    30    1
     9    30     1    1
    10     1     2    2
    11     1     3   am
    12     3     4    1
    13     4     5    1
    14     5     6    1
    15     6     9    1
    16     9    10   ar
    17    10    11    2
    18    10    12   ar
    19    12    20    1
    20    20    21    1
    21    21    22    1
    22    22    23    1
    23    23    24    1
    24    24    25    1
    25    25    26    1
    26    12    13   ar
    27    13    14   ar
    28    14    15   ar
    29    15    16    1
    30    15    17   ar
    31    17    18   ar
    32    18    19   ar
    33     6     7    1
    34     7     8    1
    35    30    31    1
    36    31    32    1
    37    37    38   ar
    38    38    39   ar
    39    39    40   ar
    40    40    35   ar
    41    32    27    1
    42     8     3    1
    43    19     9   ar
    44    26    21    1
    45    19    13   ar
    46    34    41    1
    47    34    42    1
