@<TRIPOS>MOLECULE
*****
 32 37 0 0 0
SMALL
GASTEIGER

@<TRIPOS>ATOM
      1 C          58.9797   88.6042    6.9449 C.ar    1  UNL1        0.1196
      2 C          59.3271   87.1891    7.3006 C.ar    1  UNL1        0.1023
      3 N          60.2510   87.2215    8.4819 N.ar    1  UNL1       -0.2837
      4 C          60.9176   86.1296    9.2650 C.ar    1  UNL1        0.1004
      5 C          61.8077   86.4729   10.4226 C.ar    1  UNL1        0.0968
      6 N          62.0313   87.9081   10.7969 N.ar    1  UNL1       -0.2263
      7 C          61.3646   89.0000   10.0137 C.ar    1  UNL1        0.1670
      8 C          60.4745   88.6567    8.8562 C.ar    1  UNL1        0.1801
      9 N          59.6888   89.5113    7.9063 N.ar    1  UNL1       -0.2222
     10 C          62.4743   85.3809   11.2057 C.2     1  UNL1        0.0030
     11 C          63.1954   84.2774   10.4899 C.2     1  UNL1       -0.0023
     12 C          63.8619   83.1855   11.2730 C.2     1  UNL1        0.0026
     13 C          63.8075   83.1971   12.7720 C.2     1  UNL1        0.0366
     14 C          64.3665   82.2629   13.8039 C.2     1  UNL1        0.1233
     15 N          63.9909   82.7890   15.1574 N.2     1  UNL1       -0.1467
     16 N          63.1998   84.0483   14.9621 N.2     1  UNL1       -0.1520
     17 C          63.0865   84.3006   13.4878 C.2     1  UNL1        0.0865
     18 C          62.4199   85.3925   12.7046 C.3     1  UNL1        0.0755
     19 N          61.5881   90.4353   10.3881 N.pl3   1  UNL1       -0.2955
     20 H          60.9854   91.1334   10.0438 H       1  UNL1        0.1537
     21 C          62.7301   90.8068   11.2870 C.ar    1  UNL1        0.0495
     22 C          63.8872   91.5919   10.7441 C.ar    1  UNL1        0.0159
     23 C          65.0291   91.9634   11.6430 C.ar    1  UNL1        0.0158
     24 C          65.0138   91.5498   13.0848 C.ar    1  UNL1        0.0481
     25 C          63.8567   90.7647   13.6277 C.ar    1  UNL1        0.0158
     26 C          62.7149   90.3933   12.7288 C.ar    1  UNL1        0.0159
     27 N          66.1558   91.9213   13.9837 N.pl3   1  UNL1       -0.3028
     28 C          65.8898   92.3470   15.3972 C.3     1  UNL1        0.1231
     29 C          67.0318   92.7185   16.2961 C.3     1  UNL1        0.1636
     30 O          68.4397   92.6644   15.7815 O.3     1  UNL1       -0.3501
     31 C          68.7056   92.2387   14.3679 C.3     1  UNL1        0.1636
     32 C          67.5637   91.8672   13.4690 C.3     1  UNL1        0.1231
@<TRIPOS>BOND
     1     1     2   ar
     2     2     3   ar
     3     3     4   ar
     4     4     5   ar
     5     5    10    1
     6    10    11    2
     7    11    12    1
     8    12    13    2
     9    13    14    1
    10    14    15    2
    11    15    16    1
    12    16    17    2
    13    17    18    1
    14     5     6   ar
    15     6     7   ar
    16     7    19    1
    17    19    21    1
    18    21    22   ar
    19    22    23   ar
    20    23    24   ar
    21    24    27    1
    22    27    28    1
    23    28    29    1
    24    29    30    1
    25    30    31    1
    26    31    32    1
    27    24    25   ar
    28    25    26   ar
    29     7     8   ar
    30     8     9   ar
    31     9     1   ar
    32     8     3   ar
    33    18    10    1
    34    26    21   ar
    35    17    13    1
    36    32    27    1
    37    19    20    1
@<TRIPOS>MOLECULE
*****
 32 37 0 0 0
SMALL
GASTEIGER

@<TRIPOS>ATOM
      1 C          59.4881   88.8253    7.7691 C.ar    1  UNL1        0.1196
      2 C          59.7937   87.3568    7.7711 C.ar    1  UNL1        0.1023
      3 N          60.5429   87.0409    9.0316 N.ar    1  UNL1       -0.2837
      4 C          61.1021   85.7583    9.5722 C.ar    1  UNL1        0.1004
      5 C          61.8189   85.7490   10.8899 C.ar    1  UNL1        0.0968
      6 N          61.9764   87.0224   11.6669 N.ar    1  UNL1       -0.2263
      7 C          61.4172   88.3050   11.1263 C.ar    1  UNL1        0.1670
      8 C          60.7005   88.3142    9.8087 C.ar    1  UNL1        0.1801
      9 N          60.0485   89.4171    9.0284 N.ar    1  UNL1       -0.2222
     10 C          62.3781   84.4665   11.4304 C.2     1  UNL1        0.0030
     11 C          62.8989   83.4201   10.4902 C.2     1  UNL1       -0.0023
     12 C          63.4581   82.1376   11.0308 C.2     1  UNL1        0.0026
     13 C          63.4965   81.9013   12.5116 C.2     1  UNL1        0.0366
     14 C          63.9856   80.7439   13.3310 C.2     1  UNL1        0.1233
     15 N          63.7670   81.0750   14.7776 N.2     1  UNL1       -0.1467
     16 N          63.1429   82.4369   14.8523 N.2     1  UNL1       -0.1520
     17 C          62.9757   82.9476   13.4518 C.2     1  UNL1        0.0865
     18 C          62.4165   84.2302   12.9112 C.3     1  UNL1        0.0755
     19 N          61.5747   89.5783   11.9033 N.pl3   1  UNL1       -0.2955
     20 H          60.9604   89.7814   12.6454 H       1  UNL1        0.1537
     21 C          62.6683   90.5423   11.5498 C.ar    1  UNL1        0.0495
     22 C          63.6482   90.9818   12.5970 C.ar    1  UNL1        0.0159
     23 C          64.7417   91.9457   12.2434 C.ar    1  UNL1        0.0158
     24 C          64.8553   92.4701   10.8427 C.ar    1  UNL1        0.0481
     25 C          63.8754   92.0307    9.7955 C.ar    1  UNL1        0.0158
     26 C          62.7819   91.0667   10.1491 C.ar    1  UNL1        0.0159
     27 N          65.9489   93.4341   10.4891 N.pl3   1  UNL1       -0.3028
     28 C          65.7605   94.9028   10.7289 C.3     1  UNL1        0.1231
     29 C          66.8541   95.8668   10.3753 C.3     1  UNL1        0.1636
     30 O          68.1360   95.3620    9.7821 O.3     1  UNL1       -0.3501
     31 C          68.3243   93.8932    9.5423 C.3     1  UNL1        0.1636
     32 C          67.2307   92.9294    9.8959 C.3     1  UNL1        0.1231
@<TRIPOS>BOND
     1     1     2   ar
     2     2     3   ar
     3     3     4   ar
     4     4     5   ar
     5     5    10    1
     6    10    11    2
     7    11    12    1
     8    12    13    2
     9    13    14    1
    10    14    15    2
    11    15    16    1
    12    16    17    2
    13    17    18    1
    14     5     6   ar
    15     6     7   ar
    16     7    19    1
    17    19    21    1
    18    21    22   ar
    19    22    23   ar
    20    23    24   ar
    21    24    27    1
    22    27    28    1
    23    28    29    1
    24    29    30    1
    25    30    31    1
    26    31    32    1
    27    24    25   ar
    28    25    26   ar
    29     7     8   ar
    30     8     9   ar
    31     9     1   ar
    32     8     3   ar
    33    18    10    1
    34    26    21   ar
    35    17    13    1
    36    32    27    1
    37    19    20    1
@<TRIPOS>MOLECULE
*****
 32 37 0 0 0
SMALL
GASTEIGER

@<TRIPOS>ATOM
      1 C          64.8788   84.8781   15.3657 C.ar    1  UNL1        0.1196
      2 C          64.0739   84.3935   14.1964 C.ar    1  UNL1        0.1023
      3 N          63.5990   85.5932   13.4314 N.ar    1  UNL1       -0.2837
      4 C          62.7669   85.7276   12.1906 C.ar    1  UNL1        0.1004
      5 C          62.4462   87.0881   11.6463 C.ar    1  UNL1        0.0968
      6 N          62.9577   88.3142   12.3428 N.ar    1  UNL1       -0.2263
      7 C          63.7898   88.1798   13.5836 C.ar    1  UNL1        0.1670
      8 C          64.1104   86.8193   14.1279 C.ar    1  UNL1        0.1801
      9 N          64.9014   86.3774   15.3233 N.ar    1  UNL1       -0.2222
     10 C          61.6142   87.2225   10.4055 C.2     1  UNL1        0.0030
     11 C          61.1849   85.9973    9.6540 C.2     1  UNL1       -0.0023
     12 C          60.3528   86.1317    8.4133 C.2     1  UNL1        0.0026
     13 C          59.9500   87.4912    7.9239 C.2     1  UNL1        0.0366
     14 C          59.1392   87.9330    6.7417 C.2     1  UNL1        0.1233
     15 N          59.0675   89.4310    6.7626 N.2     1  UNL1       -0.1467
     16 N          59.8338   89.9153    7.9576 N.2     1  UNL1       -0.1520
     17 C          60.3793   88.7164    8.6754 C.2     1  UNL1        0.0865
     18 C          61.2114   88.5820    9.9162 C.3     1  UNL1        0.0755
     19 N          64.3013   89.4059   14.2801 N.pl3   1  UNL1       -0.2955
     20 H          64.2975   89.4510   15.2635 H       1  UNL1        0.1537
     21 C          64.8185   90.5633   13.4781 C.ar    1  UNL1        0.0495
     22 C          64.1235   90.9687   12.2122 C.ar    1  UNL1        0.0159
     23 C          64.6407   92.1260   11.4103 C.ar    1  UNL1        0.0158
     24 C          65.8529   92.8778   11.8743 C.ar    1  UNL1        0.0481
     25 C          66.5479   92.4724   13.1401 C.ar    1  UNL1        0.0158
     26 C          66.0307   91.3151   13.9421 C.ar    1  UNL1        0.0159
     27 N          66.3701   94.0352   11.0723 N.pl3   1  UNL1       -0.3028
     28 C          67.1520   93.7876    9.8164 C.3     1  UNL1        0.1231
     29 C          67.6692   94.9450    9.0144 C.3     1  UNL1        0.1636
     30 O          67.4044   96.3499    9.4684 O.3     1  UNL1       -0.3501
     31 C          66.6225   96.5975   10.7243 C.3     1  UNL1        0.1636
     32 C          66.1053   95.4401   11.5262 C.3     1  UNL1        0.1231
@<TRIPOS>BOND
     1     1     2   ar
     2     2     3   ar
     3     3     4   ar
     4     4     5   ar
     5     5    10    1
     6    10    11    2
     7    11    12    1
     8    12    13    2
     9    13    14    1
    10    14    15    2
    11    15    16    1
    12    16    17    2
    13    17    18    1
    14     5     6   ar
    15     6     7   ar
    16     7    19    1
    17    19    21    1
    18    21    22   ar
    19    22    23   ar
    20    23    24   ar
    21    24    27    1
    22    27    28    1
    23    28    29    1
    24    29    30    1
    25    30    31    1
    26    31    32    1
    27    24    25   ar
    28    25    26   ar
    29     7     8   ar
    30     8     9   ar
    31     9     1   ar
    32     8     3   ar
    33    18    10    1
    34    26    21   ar
    35    17    13    1
    36    32    27    1
    37    19    20    1
@<TRIPOS>MOLECULE
*****
 32 37 0 0 0
SMALL
GASTEIGER

@<TRIPOS>ATOM
      1 C          66.1129   92.1583   14.4650 C.ar    1  UNL1        0.1196
      2 C          65.3112   92.4394   13.2287 C.ar    1  UNL1        0.1023
      3 N          64.5036   91.2158   12.9118 N.ar    1  UNL1       -0.2837
      4 C          63.5318   90.9121   11.8103 C.ar    1  UNL1        0.1004
      5 C          62.8625   89.5711   11.7491 C.ar    1  UNL1        0.0968
      6 N          63.1650   88.5337   12.7895 N.ar    1  UNL1       -0.2263
      7 C          64.1369   88.8374   13.8910 C.ar    1  UNL1        0.1670
      8 C          64.8061   90.1784   13.9521 C.ar    1  UNL1        0.1801
      9 N          65.8007   90.7609   14.9121 N.ar    1  UNL1       -0.2222
     10 C          61.8907   89.2674   10.6476 C.2     1  UNL1        0.0030
     11 C          61.0848   90.3730   10.0325 C.2     1  UNL1       -0.0023
     12 C          60.1130   90.0694    8.9309 C.2     1  UNL1        0.0026
     13 C          59.9470   88.6601    8.4445 C.2     1  UNL1        0.0366
     14 C          59.0733   88.0612    7.3825 C.2     1  UNL1        0.1233
     15 N          59.3391   86.5856    7.3413 N.2     1  UNL1       -0.1467
     16 N          60.3771   86.2724    8.3778 N.2     1  UNL1       -0.1520
     17 C          60.7529   87.5546    9.0596 C.2     1  UNL1        0.0865
     18 C          61.7247   87.8583   10.1612 C.3     1  UNL1        0.0755
     19 N          64.4394   87.8001   14.9314 N.pl3   1  UNL1       -0.2955
     20 H          64.9338   88.0489   15.7455 H       1  UNL1        0.1537
     21 C          63.9886   86.3834   14.7313 C.ar    1  UNL1        0.0495
     22 C          63.9055   85.8112   13.3472 C.ar    1  UNL1        0.0159
     23 C          63.4546   84.3946   13.1472 C.ar    1  UNL1        0.0158
     24 C          63.0870   83.5503   14.3312 C.ar    1  UNL1        0.0481
     25 C          63.1701   84.1225   15.7152 C.ar    1  UNL1        0.0158
     26 C          63.6209   85.5390   15.9153 C.ar    1  UNL1        0.0159
     27 N          62.6361   82.1336   14.1311 N.pl3   1  UNL1       -0.3028
     28 C          61.2031   81.7616   14.3715 C.3     1  UNL1        0.1231
     29 C          60.7523   80.3449   14.1714 C.3     1  UNL1        0.1636
     30 O          61.7346   79.3004   13.7309 O.3     1  UNL1       -0.3501
     31 C          63.1677   79.6725   13.4905 C.3     1  UNL1        0.1636
     32 C          63.6185   81.0891   13.6906 C.3     1  UNL1        0.1231
@<TRIPOS>BOND
     1     1     2   ar
     2     2     3   ar
     3     3     4   ar
     4     4     5   ar
     5     5    10    1
     6    10    11    2
     7    11    12    1
     8    12    13    2
     9    13    14    1
    10    14    15    2
    11    15    16    1
    12    16    17    2
    13    17    18    1
    14     5     6   ar
    15     6     7   ar
    16     7    19    1
    17    19    21    1
    18    21    22   ar
    19    22    23   ar
    20    23    24   ar
    21    24    27    1
    22    27    28    1
    23    28    29    1
    24    29    30    1
    25    30    31    1
    26    31    32    1
    27    24    25   ar
    28    25    26   ar
    29     7     8   ar
    30     8     9   ar
    31     9     1   ar
    32     8     3   ar
    33    18    10    1
    34    26    21   ar
    35    17    13    1
    36    32    27    1
    37    19    20    1
@<TRIPOS>MOLECULE
*****
 32 37 0 0 0
SMALL
GASTEIGER

@<TRIPOS>ATOM
      1 C          64.3033   85.5645   16.0562 C.ar    1  UNL1        0.1196
      2 C          63.9318   84.6894   14.8959 C.ar    1  UNL1        0.1023
      3 N          63.4617   85.5744   13.7797 N.ar    1  UNL1       -0.2837
      4 C          62.9705   85.2691   12.3958 C.ar    1  UNL1        0.1004
      5 C          62.5601   86.3859   11.4822 C.ar    1  UNL1        0.0968
      6 N          62.6412   87.8079   11.9526 N.ar    1  UNL1       -0.2263
      7 C          63.1325   88.1132   13.3367 C.ar    1  UNL1        0.1670
      8 C          63.5428   86.9964   14.2502 C.ar    1  UNL1        0.1801
      9 N          64.0629   86.9903   15.6571 N.ar    1  UNL1       -0.2222
     10 C          62.0689   86.0806   10.0982 C.2     1  UNL1        0.0030
     11 C          60.6962   86.5147    9.6768 C.2     1  UNL1       -0.0023
     12 C          60.2050   86.2094    8.2929 C.2     1  UNL1        0.0026
     13 C          61.0863   85.4700    7.3302 C.2     1  UNL1        0.0366
     14 C          60.8763   85.0305    5.9115 C.2     1  UNL1        0.1233
     15 N          62.1191   84.3249    5.4561 N.2     1  UNL1       -0.1467
     16 N          63.0972   84.3282    6.5933 N.2     1  UNL1       -0.1520
     17 C          62.4589   85.0359    7.7516 C.2     1  UNL1        0.0865
     18 C          62.9502   85.3413    9.1356 C.3     1  UNL1        0.0755
     19 N          63.2135   89.5352   13.8071 N.pl3   1  UNL1       -0.2955
     20 H          62.7753   89.8014   14.6475 H       1  UNL1        0.1537
     21 C          63.9623   90.5516   12.9970 C.ar    1  UNL1        0.0495
     22 C          63.5001   90.8952   11.6120 C.ar    1  UNL1        0.0159
     23 C          64.2489   91.9116   10.8020 C.ar    1  UNL1        0.0158
     24 C          65.4599   92.5845   11.3770 C.ar    1  UNL1        0.0481
     25 C          65.9222   92.2409   12.7620 C.ar    1  UNL1        0.0158
     26 C          65.1734   91.2245   13.5720 C.ar    1  UNL1        0.0159
     27 N          66.2088   93.6009   10.5669 N.pl3   1  UNL1       -0.3028
     28 C          67.4332   93.1955    9.8012 C.3     1  UNL1        0.1231
     29 C          68.1820   94.2120    8.9911 C.3     1  UNL1        0.1636
     30 O          67.7063   95.6338    8.9468 O.3     1  UNL1       -0.3501
     31 C          66.4818   96.0393    9.7126 C.3     1  UNL1        0.1636
     32 C          65.7331   95.0228   10.5226 C.3     1  UNL1        0.1231
@<TRIPOS>BOND
     1     1     2   ar
     2     2     3   ar
     3     3     4   ar
     4     4     5   ar
     5     5    10    1
     6    10    11    2
     7    11    12    1
     8    12    13    2
     9    13    14    1
    10    14    15    2
    11    15    16    1
    12    16    17    2
    13    17    18    1
    14     5     6   ar
    15     6     7   ar
    16     7    19    1
    17    19    21    1
    18    21    22   ar
    19    22    23   ar
    20    23    24   ar
    21    24    27    1
    22    27    28    1
    23    28    29    1
    24    29    30    1
    25    30    31    1
    26    31    32    1
    27    24    25   ar
    28    25    26   ar
    29     7     8   ar
    30     8     9   ar
    31     9     1   ar
    32     8     3   ar
    33    18    10    1
    34    26    21   ar
    35    17    13    1
    36    32    27    1
    37    19    20    1
