@<TRIPOS>MOLECULE
*****
 64 71 0 0 0
SMALL
GASTEIGER

@<TRIPOS>ATOM
      1 N          58.7327   93.8913   -4.0797 N.3     1  UNL1       -0.1862
      2 C          59.6505   95.0772   -4.1132 C.3     1  UNL1        0.1775
      3 C          60.1571   95.6699   -2.8318 C.2     1  UNL1        0.2452
      4 O          61.0750   96.8559   -2.8653 O.2     1  UNL1       -0.2732
      5 N          59.7460   95.0767   -1.5169 N.am    1  UNL1       -0.2541
      6 C          60.2526   95.6695   -0.2355 C.3     1  UNL1        0.1577
      7 C          59.8414   95.0763    1.0794 C.2     1  UNL1        0.2445
      8 O          60.3481   95.6690    2.3608 O.2     1  UNL1       -0.2731
      9 N          58.9236   93.8903    1.1129 N.am    1  UNL1       -0.2705
     10 C          58.4170   93.2975   -0.1685 C.3     1  UNL1        0.1359
     11 C          58.8282   93.8908   -1.4834 C.3     1  UNL1        0.1908
     12 N          58.3216   93.2981   -2.7648 N.am    1  UNL1       -0.1863
     13 C          57.4037   92.1121   -2.7313 C.2     1  UNL1        0.3191
     14 O          56.9926   91.5189   -1.4164 O.2     1  UNL1       -0.2512
     15 N          56.8971   91.5193   -4.0127 N.am    1  UNL1       -0.2836
     16 H          57.1670   91.9087   -4.8757 H       1  UNL1        0.1513
     17 C          58.2261   93.2986   -5.3611 C.3     1  UNL1        0.1188
     18 C          57.5420   95.1429   -7.0582 C.2     1  UNL1       -0.0034
     19 C          58.4486   94.0166   -6.6592 C.2     1  UNL1       -0.0071
     20 C          61.1704   96.8554   -0.2690 C.3     1  UNL1        0.0556
     21 C          62.6558   96.6563   -0.2059 C.ar    1  UNL1       -0.0198
     22 C          63.4738   96.7111   -1.4620 C.ar    1  UNL1       -0.0011
     23 C          64.9592   96.5120   -1.3989 C.ar    1  UNL1        0.0363
     24 C          65.6265   96.2580   -0.0798 C.ar    1  UNL1        0.1337
     25 O          67.1119   96.0589   -0.0167 O.3     1  UNL1       -0.5055
     26 C          64.8085   96.2031    1.1764 C.ar    1  UNL1        0.0363
     27 C          63.3231   96.4023    1.1133 C.ar    1  UNL1       -0.0011
     28 H          67.6230   96.0931   -0.8013 H       1  UNL1        0.2922
     29 C          58.5124   93.2970    2.4278 C.3     1  UNL1        0.1217
     30 C          59.4870   92.4737    3.2167 C.ar    1  UNL1        0.0135
     31 C          60.9451   92.4965    2.8653 C.ar    1  UNL1       -0.0012
     32 C          61.9197   91.6733    3.6542 C.ar    1  UNL1       -0.0002
     33 C          61.4362   90.8271    4.7944 C.ar    1  UNL1        0.0015
     34 C          59.9781   90.8043    5.1458 C.ar    1  UNL1        0.0170
     35 C          59.2132   90.0727    6.2087 C.ar    1  UNL1        0.0186
     36 C          57.7659   90.4438    6.0767 C.ar    1  UNL1        0.0759
     37 N          57.6363   91.4048    4.9323 N.ar    1  UNL1       -0.3242
     38 C          56.3630   92.0328    4.4482 C.3     1  UNL1        0.1305
     39 C          59.0035   91.6276    4.3570 C.ar    1  UNL1        0.0575
     40 C          59.7937   89.1346    7.2251 C.ar    1  UNL1        0.0015
     41 C          59.6561   87.6521    7.0424 C.ar    1  UNL1        0.0002
     42 C          60.2366   86.7141    8.0588 C.ar    1  UNL1        0.0045
     43 C          60.9548   87.2585    9.2579 C.ar    1  UNL1        0.0537
     44 C          61.0924   88.7410    9.4406 C.ar    1  UNL1        0.0045
     45 C          60.5119   89.6790    8.4242 C.ar    1  UNL1        0.0002
     46 C          61.5353   86.3205   10.2743 C.2     1  UNL1        0.2495
     47 O          61.1549   86.4515   11.7193 O.2     1  UNL1       -0.2698
     48 N          62.4962   85.2513    9.8457 N.am    1  UNL1       -0.2803
     49 H          62.7459   85.1653    8.8973 H       1  UNL1        0.1552
     50 C          63.0767   84.3133   10.8621 C.ar    1  UNL1        0.0536
     51 C          63.9422   83.1708   10.4201 C.ar    1  UNL1        0.0149
     52 C          64.5227   82.2327   11.4365 C.ar    1  UNL1        0.0044
     53 C          64.2377   82.4372   12.8949 C.ar    1  UNL1        0.0367
     54 C          63.3721   83.5798   13.3369 C.ar    1  UNL1        0.1349
     55 O          63.0870   83.7842   14.7953 O.3     1  UNL1       -0.5055
     56 C          62.7916   84.5178   12.3205 C.ar    1  UNL1        0.0513
     57 H          63.4497   83.1983   15.4302 H       1  UNL1        0.2922
     58 C          55.9793   90.3334   -3.9792 C.3     1  UNL1        0.1177
     59 C          54.9653   90.1388   -5.0673 C.ar    1  UNL1       -0.0025
     60 C          55.1370   90.8337   -6.3855 C.ar    1  UNL1       -0.0026
     61 C          54.1230   90.6391   -7.4736 C.ar    1  UNL1       -0.0003
     62 C          52.9374   89.7495   -7.2435 C.ar    1  UNL1       -0.0000
     63 C          52.7657   89.0545   -5.9253 C.ar    1  UNL1       -0.0003
     64 C          53.7797   89.2492   -4.8372 C.ar    1  UNL1       -0.0026
@<TRIPOS>BOND
     1    18    19    2
     2    19    17    1
     3    17     1    1
     4     1     2    1
     5     2     3    1
     6     3     4    2
     7     3     5   am
     8     5     6    1
     9     6    20    1
    10    20    21    1
    11    21    22   ar
    12    22    23   ar
    13    23    24   ar
    14    24    25    1
    15    24    26   ar
    16    26    27   ar
    17     6     7    1
    18     7     8    2
    19     7     9   am
    20     9    29    1
    21    29    30    1
    22    30    31   ar
    23    31    32   ar
    24    32    33   ar
    25    33    34   ar
    26    34    35   ar
    27    35    40    1
    28    40    41   ar
    29    41    42   ar
    30    42    43   ar
    31    43    46    1
    32    46    47    2
    33    46    48   am
    34    48    50    1
    35    50    51   ar
    36    51    52   ar
    37    52    53   ar
    38    53    54   ar
    39    54    55    1
    40    54    56   ar
    41    43    44   ar
    42    44    45   ar
    43    35    36   ar
    44    36    37   ar
    45    37    38    1
    46    37    39   ar
    47     9    10    1
    48    11    10    1
    49    11    12    1
    50    12    13   am
    51    13    14    2
    52    13    15   am
    53    15    58    1
    54    58    59    1
    55    59    60   ar
    56    60    61   ar
    57    61    62   ar
    58    62    63   ar
    59    63    64   ar
    60    12     1    1
    61    64    59   ar
    62    11     5    1
    63    27    21   ar
    64    39    30   ar
    65    39    34   ar
    66    45    40   ar
    67    56    50   ar
    68    25    28    1
    69    48    49    1
    70    55    57    1
    71    15    16    1
@<TRIPOS>MOLECULE
*****
 64 71 0 0 0
SMALL
GASTEIGER

@<TRIPOS>ATOM
      1 N          62.3064   94.8526   -3.4014 N.3     1  UNL1       -0.1862
      2 C          61.2218   94.4831   -4.3694 C.3     1  UNL1        0.1775
      3 C          59.9010   93.9855   -3.8617 C.2     1  UNL1        0.2452
      4 O          58.8164   93.6160   -4.8298 O.2     1  UNL1       -0.2732
      5 N          59.6647   93.8575   -2.3860 N.am    1  UNL1       -0.2541
      6 C          58.3438   93.3600   -1.8783 C.3     1  UNL1        0.1577
      7 C          58.1076   93.2320   -0.4026 C.2     1  UNL1        0.2445
      8 O          56.7867   92.7344    0.1051 O.2     1  UNL1       -0.2731
      9 N          59.1922   93.6015    0.5655 N.am    1  UNL1       -0.2705
     10 C          60.5130   94.0991    0.0578 C.3     1  UNL1        0.1359
     11 C          60.7493   94.2271   -1.4180 C.3     1  UNL1        0.1908
     12 N          62.0702   94.7246   -1.9257 N.am    1  UNL1       -0.1863
     13 C          63.1548   95.0941   -0.9576 C.2     1  UNL1        0.3191
     14 O          62.9185   94.9661    0.5180 O.2     1  UNL1       -0.2512
     15 N          64.4756   95.5917   -1.4654 N.am    1  UNL1       -0.2836
     16 H          64.6307   95.6757   -2.4339 H       1  UNL1        0.1513
     17 C          63.6273   95.3501   -3.9091 C.3     1  UNL1        0.1188
     18 C          64.7234   95.0601   -6.2467 C.2     1  UNL1       -0.0034
     19 C          64.4173   94.5234   -4.8799 C.2     1  UNL1       -0.0071
     20 C          57.2592   92.9904   -2.8463 C.3     1  UNL1        0.0556
     21 C          56.1297   93.9425   -3.1064 C.ar    1  UNL1       -0.0198
     22 C          55.2187   94.3493   -1.9863 C.ar    1  UNL1       -0.0011
     23 C          54.0892   95.3014   -2.2464 C.ar    1  UNL1        0.0363
     24 C          53.8706   95.8468   -3.6265 C.ar    1  UNL1        0.1337
     25 O          52.7411   96.7989   -3.8866 O.3     1  UNL1       -0.5055
     26 C          54.7817   95.4400   -4.7467 C.ar    1  UNL1        0.0363
     27 C          55.9112   94.4879   -4.4866 C.ar    1  UNL1       -0.0011
     28 H          52.1720   97.0530   -3.1869 H       1  UNL1        0.2922
     29 C          58.9559   93.4735    2.0412 C.3     1  UNL1        0.1217
     30 C          59.8670   92.6227    2.8756 C.ar    1  UNL1        0.0135
     31 C          61.3334   92.5662    2.5652 C.ar    1  UNL1       -0.0012
     32 C          62.2444   91.7155    3.3995 C.ar    1  UNL1       -0.0002
     33 C          61.6890   90.9212    4.5443 C.ar    1  UNL1        0.0015
     34 C          60.2226   90.9777    4.8548 C.ar    1  UNL1        0.0170
     35 C          59.3939   90.3097    5.9117 C.ar    1  UNL1        0.0186
     36 C          57.9708   90.7476    5.7305 C.ar    1  UNL1        0.0759
     37 N          57.9199   91.6862    4.5617 N.ar    1  UNL1       -0.3242
     38 C          56.6927   92.3637    4.0278 C.3     1  UNL1        0.1305
     39 C          59.3116   91.8285    4.0204 C.ar    1  UNL1        0.0575
     40 C          59.8997   89.3689    6.9649 C.ar    1  UNL1        0.0015
     41 C          59.6368   87.8970    6.8446 C.ar    1  UNL1        0.0002
     42 C          60.1426   86.9564    7.8978 C.ar    1  UNL1        0.0045
     43 C          60.9112   87.4875    9.0713 C.ar    1  UNL1        0.0537
     44 C          61.1741   88.9594    9.1916 C.ar    1  UNL1        0.0045
     45 C          60.6684   89.9000    8.1384 C.ar    1  UNL1        0.0002
     46 C          61.4170   86.5467   10.1245 C.2     1  UNL1        0.2495
     47 O          60.9369   86.6771   11.5396 O.2     1  UNL1       -0.2698
     48 N          62.4028   85.4756    9.7626 N.am    1  UNL1       -0.2803
     49 H          62.7179   85.3900    8.8339 H       1  UNL1        0.1552
     50 C          62.9084   84.5349   10.8159 C.ar    1  UNL1        0.0536
     51 C          63.9520   83.5140   10.4710 C.ar    1  UNL1        0.0149
     52 C          64.4577   82.5733   11.5242 C.ar    1  UNL1        0.0044
     53 C          63.9199   82.6534   12.9222 C.ar    1  UNL1        0.0367
     54 C          62.8764   83.6743   13.2670 C.ar    1  UNL1        0.1349
     55 O          62.3386   83.7544   14.6650 O.3     1  UNL1       -0.5055
     56 C          62.3707   84.6150   12.2138 C.ar    1  UNL1        0.0513
     57 H          62.6546   83.1667   15.3229 H       1  UNL1        0.2922
     58 C          65.5602   95.9612   -0.4974 C.3     1  UNL1        0.1177
     59 C          65.3756   95.7059    0.9692 C.ar    1  UNL1       -0.0025
     60 C          65.2314   94.3007    1.4735 C.ar    1  UNL1       -0.0026
     61 C          65.0468   94.0454    2.9401 C.ar    1  UNL1       -0.0003
     62 C          65.0063   95.1954    3.9023 C.ar    1  UNL1       -0.0000
     63 C          65.1505   96.6007    3.3979 C.ar    1  UNL1       -0.0003
     64 C          65.3351   96.8560    1.9314 C.ar    1  UNL1       -0.0026
@<TRIPOS>BOND
     1    18    19    2
     2    19    17    1
     3    17     1    1
     4     1     2    1
     5     2     3    1
     6     3     4    2
     7     3     5   am
     8     5     6    1
     9     6    20    1
    10    20    21    1
    11    21    22   ar
    12    22    23   ar
    13    23    24   ar
    14    24    25    1
    15    24    26   ar
    16    26    27   ar
    17     6     7    1
    18     7     8    2
    19     7     9   am
    20     9    29    1
    21    29    30    1
    22    30    31   ar
    23    31    32   ar
    24    32    33   ar
    25    33    34   ar
    26    34    35   ar
    27    35    40    1
    28    40    41   ar
    29    41    42   ar
    30    42    43   ar
    31    43    46    1
    32    46    47    2
    33    46    48   am
    34    48    50    1
    35    50    51   ar
    36    51    52   ar
    37    52    53   ar
    38    53    54   ar
    39    54    55    1
    40    54    56   ar
    41    43    44   ar
    42    44    45   ar
    43    35    36   ar
    44    36    37   ar
    45    37    38    1
    46    37    39   ar
    47     9    10    1
    48    11    10    1
    49    11    12    1
    50    12    13   am
    51    13    14    2
    52    13    15   am
    53    15    58    1
    54    58    59    1
    55    59    60   ar
    56    60    61   ar
    57    61    62   ar
    58    62    63   ar
    59    63    64   ar
    60    12     1    1
    61    64    59   ar
    62    11     5    1
    63    27    21   ar
    64    39    30   ar
    65    39    34   ar
    66    45    40   ar
    67    56    50   ar
    68    25    28    1
    69    48    49    1
    70    55    57    1
    71    15    16    1
