@<TRIPOS>MOLECULE
*****
 25 27 0 0 0
SMALL
GASTEIGER

@<TRIPOS>ATOM
      1 C          62.4350   89.6587   12.4269 C.ar    1  UNL1        0.1511
      2 C          61.0172   90.1075   12.2309 C.ar    1  UNL1        0.1331
      3 N          60.0655   89.2614   11.4380 N.ar    1  UNL1       -0.2378
      4 C          60.5317   87.9665   10.8412 C.ar    1  UNL1        0.1180
      5 C          61.9495   87.5177   11.0373 C.ar    1  UNL1        0.1018
      6 N          62.9012   88.3639   11.8302 N.ar    1  UNL1       -0.2275
      7 C          66.8138   93.6863   14.4847 C.3     1  UNL1        0.0897
      8 N          65.7311   92.6611   14.3215 N.3     1  UNL1       -0.2700
      9 C          65.2117   92.0551   15.5916 C.3     1  UNL1        0.0739
     10 C          64.1439   91.0159   15.7635 C.3     1  UNL1        0.0388
     11 C          63.3316   90.3258   14.7080 C.3     1  UNL1        0.0937
     12 N          63.3866   90.5047   13.2197 N.pl3   1  UNL1       -0.2905
     13 C          64.2675   91.4178   12.4195 C.3     1  UNL1        0.1095
     14 C          65.3108   92.3774   12.9097 C.3     1  UNL1        0.0939
     15 C          62.4156   86.2229   10.4406 C.ar    1  UNL1        0.0192
     16 C          62.6540   86.1208    8.9632 C.ar    1  UNL1        0.0015
     17 C          63.1201   84.8260    8.3664 C.ar    1  UNL1        0.0000
     18 C          63.3479   83.6333    9.2470 C.ar    1  UNL1        0.0000
     19 C          63.1095   83.7354   10.7245 C.ar    1  UNL1        0.0001
     20 C          62.6434   85.0303   11.3213 C.ar    1  UNL1        0.0015
     21 C          63.3373   82.5427   11.6051 C.2     1  UNL1        0.0012
     22 C          62.3319   82.1860   12.6595 C.2     1  UNL1        0.0151
     23 C          62.5597   80.9932   13.5402 C.2     1  UNL1        0.0729
     24 O          63.8891   80.7957   14.2062 O.co2   1  UNL1       -0.5446
     25 O          61.4581   79.9979   13.7547 O.co2   1  UNL1       -0.5446
@<TRIPOS>UNITY_ATOM_ATTR
24 1
charge -1
@<TRIPOS>BOND
     1     7     8    1
     2     8     9    1
     3     9    10    1
     4    10    11    1
     5    11    12    1
     6    12     1    1
     7     1     2   ar
     8     2     3   ar
     9     3     4   ar
    10     4     5   ar
    11     5    15    1
    12    15    16   ar
    13    16    17   ar
    14    17    18   ar
    15    18    19   ar
    16    19    21    1
    17    21    22    2
    18    22    23    1
    19    23    24   ar
    20    23    25   ar
    21    19    20   ar
    22     5     6   ar
    23    12    13    1
    24    13    14    1
    25    14     8    1
    26     6     1   ar
    27    20    15   ar
@<TRIPOS>MOLECULE
*****
 25 27 0 0 0
SMALL
GASTEIGER

@<TRIPOS>ATOM
      1 C          62.3655   86.6801   11.6400 C.ar    1  UNL1        0.1511
      2 C          61.1654   87.1276   10.8592 C.ar    1  UNL1        0.1331
      3 N          60.8424   88.5886   10.7522 N.ar    1  UNL1       -0.2378
      4 C          61.7194   89.6019   11.4259 C.ar    1  UNL1        0.1180
      5 C          62.9196   89.1544   12.2066 C.ar    1  UNL1        0.1018
      6 N          63.2425   87.6934   12.3137 N.ar    1  UNL1       -0.2275
      7 C          63.3141   80.7192   13.4282 C.3     1  UNL1        0.0897
      8 N          63.1963   82.0277   12.7045 N.3     1  UNL1       -0.2700
      9 C          63.5957   82.0101   11.2586 C.3     1  UNL1        0.0739
     10 C          63.5921   83.1412   10.2736 C.3     1  UNL1        0.0388
     11 C          63.1884   84.5694   10.4909 C.3     1  UNL1        0.0937
     12 N          62.6884   85.2192   11.7470 N.pl3   1  UNL1       -0.2905
     13 C          62.4688   84.6012   13.0961 C.3     1  UNL1        0.1095
     14 C          62.6948   83.1810   13.5222 C.3     1  UNL1        0.0939
     15 C          63.7966   90.1678   12.8803 C.ar    1  UNL1        0.0192
     16 C          64.0252   90.0957   14.3609 C.ar    1  UNL1        0.0015
     17 C          64.9023   91.1090   15.0346 C.ar    1  UNL1        0.0000
     18 C          65.5508   92.1945   14.2276 C.ar    1  UNL1        0.0000
     19 C          65.3221   92.2665   12.7468 C.ar    1  UNL1        0.0001
     20 C          64.4450   91.2532   12.0732 C.ar    1  UNL1        0.0015
     21 C          65.9705   93.3520   11.9398 C.2     1  UNL1        0.0012
     22 C          66.5486   93.0404   10.5912 C.2     1  UNL1        0.0151
     23 C          67.1971   94.1260    9.7842 C.2     1  UNL1        0.0729
     24 O          66.3688   95.2503    9.2370 O.co2   1  UNL1       -0.5446
     25 O          68.6739   94.0870    9.5245 O.co2   1  UNL1       -0.5446
@<TRIPOS>UNITY_ATOM_ATTR
24 1
charge -1
@<TRIPOS>BOND
     1     7     8    1
     2     8     9    1
     3     9    10    1
     4    10    11    1
     5    11    12    1
     6    12     1    1
     7     1     2   ar
     8     2     3   ar
     9     3     4   ar
    10     4     5   ar
    11     5    15    1
    12    15    16   ar
    13    16    17   ar
    14    17    18   ar
    15    18    19   ar
    16    19    21    1
    17    21    22    2
    18    22    23    1
    19    23    24   ar
    20    23    25   ar
    21    19    20   ar
    22     5     6   ar
    23    12    13    1
    24    13    14    1
    25    14     8    1
    26     6     1   ar
    27    20    15   ar
@<TRIPOS>MOLECULE
*****
 25 27 0 0 0
SMALL
GASTEIGER

@<TRIPOS>ATOM
      1 C          65.2556   92.3497   11.9809 C.ar    1  UNL1        0.1511
      2 C          65.5893   92.4045   13.4423 C.ar    1  UNL1        0.1331
      3 N          64.8170   91.5689   14.4198 N.ar    1  UNL1       -0.2378
      4 C          63.7110   90.6786   13.9359 C.ar    1  UNL1        0.1180
      5 C          63.3773   90.6238   12.4744 C.ar    1  UNL1        0.1018
      6 N          64.1497   91.4594   11.4970 N.ar    1  UNL1       -0.2275
      7 C          67.5706   96.8548    8.2425 C.3     1  UNL1        0.0897
      8 N          67.2673   95.5973    9.0019 N.3     1  UNL1       -0.2700
      9 C          68.1722   94.4339    8.7225 C.3     1  UNL1        0.0739
     10 C          68.1325   93.0555    9.3124 C.3     1  UNL1        0.0388
     11 C          67.1782   92.4997   10.3276 C.3     1  UNL1        0.0937
     12 N          66.0279   93.1852   11.0035 N.pl3   1  UNL1       -0.2905
     13 C          65.5478   94.5959   10.8311 C.3     1  UNL1        0.1095
     14 C          66.0993   95.6693    9.9404 C.3     1  UNL1        0.0939
     15 C          62.2713   89.7335   11.9905 C.ar    1  UNL1        0.0192
     16 C          60.8417   90.1571   12.1539 C.ar    1  UNL1        0.0015
     17 C          59.7358   89.2668   11.6700 C.ar    1  UNL1        0.0000
     18 C          60.0594   87.9530   11.0227 C.ar    1  UNL1        0.0000
     19 C          61.4891   87.5294   10.8593 C.ar    1  UNL1        0.0001
     20 C          62.5951   88.4197   11.3432 C.ar    1  UNL1        0.0015
     21 C          61.8127   86.2156   10.2120 C.2     1  UNL1        0.0012
     22 C          62.6298   86.1801    8.9546 C.2     1  UNL1        0.0151
     23 C          62.9534   84.8661    8.3073 C.2     1  UNL1        0.0729
     24 O          62.5853   84.6258    6.8732 O.co2   1  UNL1       -0.5446
     25 O          63.6451   83.7926    9.0941 O.co2   1  UNL1       -0.5446
@<TRIPOS>UNITY_ATOM_ATTR
24 1
charge -1
@<TRIPOS>BOND
     1     7     8    1
     2     8     9    1
     3     9    10    1
     4    10    11    1
     5    11    12    1
     6    12     1    1
     7     1     2   ar
     8     2     3   ar
     9     3     4   ar
    10     4     5   ar
    11     5    15    1
    12    15    16   ar
    13    16    17   ar
    14    17    18   ar
    15    18    19   ar
    16    19    21    1
    17    21    22    2
    18    22    23    1
    19    23    24   ar
    20    23    25   ar
    21    19    20   ar
    22     5     6   ar
    23    12    13    1
    24    13    14    1
    25    14     8    1
    26     6     1   ar
    27    20    15   ar
@<TRIPOS>MOLECULE
*****
 25 27 0 0 0
SMALL
GASTEIGER

@<TRIPOS>ATOM
      1 C          63.5607   85.9469   14.1302 C.ar    1  UNL1        0.1511
      2 C          63.7927   86.3484   15.5568 C.ar    1  UNL1        0.1331
      3 N          63.9318   87.7985   15.9147 N.ar    1  UNL1       -0.2378
      4 C          63.8389   88.8470   14.8461 C.ar    1  UNL1        0.1180
      5 C          63.6069   88.4455   13.4195 C.ar    1  UNL1        0.1018
      6 N          63.4678   86.9954   13.0616 N.ar    1  UNL1       -0.2275
      7 C          62.0355   79.8560   13.6775 C.3     1  UNL1        0.0897
      8 N          62.6050   81.2358   13.5299 N.3     1  UNL1       -0.2700
      9 C          63.6287   81.4051   12.4466 C.3     1  UNL1        0.0739
     10 C          64.3756   82.6442   12.0511 C.3     1  UNL1        0.0388
     11 C          64.2835   84.0202   12.6410 C.3     1  UNL1        0.0937
     12 N          63.4216   84.4969   13.7723 N.pl3   1  UNL1       -0.2905
     13 C          62.4390   83.7153   14.5930 C.3     1  UNL1        0.1095
     14 C          62.0755   82.2641   14.4852 C.3     1  UNL1        0.0939
     15 C          63.5140   89.4940   12.3509 C.ar    1  UNL1        0.0192
     16 C          62.5238   89.3415   11.2346 C.ar    1  UNL1        0.0015
     17 C          62.4309   90.3901   10.1660 C.ar    1  UNL1        0.0000
     18 C          63.3282   91.5911   10.2137 C.ar    1  UNL1        0.0000
     19 C          64.3184   91.7436   11.3301 C.ar    1  UNL1        0.0001
     20 C          64.4113   90.6951   12.3987 C.ar    1  UNL1        0.0015
     21 C          65.2157   92.9446   11.3778 C.2     1  UNL1        0.0012
     22 C          66.1793   93.2059   10.2583 C.2     1  UNL1        0.0151
     23 C          67.0766   94.4070   10.3061 C.2     1  UNL1        0.0729
     24 O          66.6603   95.6240   11.0778 O.co2   1  UNL1       -0.5446
     25 O          68.3902   94.3911    9.5821 O.co2   1  UNL1       -0.5446
@<TRIPOS>UNITY_ATOM_ATTR
24 1
charge -1
@<TRIPOS>BOND
     1     7     8    1
     2     8     9    1
     3     9    10    1
     4    10    11    1
     5    11    12    1
     6    12     1    1
     7     1     2   ar
     8     2     3   ar
     9     3     4   ar
    10     4     5   ar
    11     5    15    1
    12    15    16   ar
    13    16    17   ar
    14    17    18   ar
    15    18    19   ar
    16    19    21    1
    17    21    22    2
    18    22    23    1
    19    23    24   ar
    20    23    25   ar
    21    19    20   ar
    22     5     6   ar
    23    12    13    1
    24    13    14    1
    25    14     8    1
    26     6     1   ar
    27    20    15   ar
@<TRIPOS>MOLECULE
*****
 25 27 0 0 0
SMALL
GASTEIGER

@<TRIPOS>ATOM
      1 C          62.0380   86.7066   11.2580 C.ar    1  UNL1        0.1511
      2 C          60.6047   86.9290   10.8758 C.ar    1  UNL1        0.1331
      3 N          60.0921   88.3230   10.6656 N.ar    1  UNL1       -0.2378
      4 C          61.0129   89.4946   10.8376 C.ar    1  UNL1        0.1180
      5 C          62.4463   89.2722   11.2199 C.ar    1  UNL1        0.1018
      6 N          62.9588   87.8781   11.4301 N.ar    1  UNL1       -0.2275
      7 C          63.7256   81.0544   13.4567 C.3     1  UNL1        0.0897
      8 N          63.4541   82.2864   12.6454 N.3     1  UNL1       -0.2700
      9 C          63.8926   82.2316   11.2119 C.3     1  UNL1        0.0739
     10 C          63.7653   83.2871   10.1540 C.3     1  UNL1        0.0388
     11 C          63.1680   84.6584   10.2679 C.3     1  UNL1        0.0937
     12 N          62.5506   85.3127   11.4682 N.pl3   1  UNL1       -0.2905
     13 C          62.3779   84.7573   12.8509 C.3     1  UNL1        0.1095
     14 C          62.7799   83.4106   13.3748 C.3     1  UNL1        0.0939
     15 C          63.3670   90.4437   11.3919 C.ar    1  UNL1        0.0192
     16 C          63.6000   91.3885   10.2504 C.ar    1  UNL1        0.0015
     17 C          64.5208   92.5601   10.4225 C.ar    1  UNL1        0.0000
     18 C          65.2086   92.7869   11.7360 C.ar    1  UNL1        0.0000
     19 C          64.9755   91.8420   12.8776 C.ar    1  UNL1        0.0001
     20 C          64.0547   90.6705   12.7056 C.ar    1  UNL1        0.0015
     21 C          65.6633   92.0689   14.1912 C.2     1  UNL1        0.0012
     22 C          66.9337   92.8645   14.2450 C.2     1  UNL1        0.0151
     23 C          67.6215   93.0913   15.5587 C.2     1  UNL1        0.0729
     24 O          69.0354   93.5911   15.5885 O.co2   1  UNL1       -0.5446
     25 O          66.8953   92.8184   16.8424 O.co2   1  UNL1       -0.5446
@<TRIPOS>UNITY_ATOM_ATTR
24 1
charge -1
@<TRIPOS>BOND
     1     7     8    1
     2     8     9    1
     3     9    10    1
     4    10    11    1
     5    11    12    1
     6    12     1    1
     7     1     2   ar
     8     2     3   ar
     9     3     4   ar
    10     4     5   ar
    11     5    15    1
    12    15    16   ar
    13    16    17   ar
    14    17    18   ar
    15    18    19   ar
    16    19    21    1
    17    21    22    2
    18    22    23    1
    19    23    24   ar
    20    23    25   ar
    21    19    20   ar
    22     5     6   ar
    23    12    13    1
    24    13    14    1
    25    14     8    1
    26     6     1   ar
    27    20    15   ar
@<TRIPOS>MOLECULE
*****
 25 27 0 0 0
SMALL
GASTEIGER

@<TRIPOS>ATOM
      1 C          65.3709   92.4421   12.2137 C.ar    1  UNL1        0.1511
      2 C          65.9658   92.0774   13.5416 C.ar    1  UNL1        0.1331
      3 N          65.4474   90.8880   14.2944 N.ar    1  UNL1       -0.2378
      4 C          64.3341   90.0633   13.7195 C.ar    1  UNL1        0.1180
      5 C          63.7392   90.4281   12.3917 C.ar    1  UNL1        0.1018
      6 N          64.2576   91.6175   11.6388 N.ar    1  UNL1       -0.2275
      7 C          67.7032   96.5031    8.0068 C.3     1  UNL1        0.0897
      8 N          67.1379   95.8057    9.2085 N.3     1  UNL1       -0.2700
      9 C          66.9116   96.6680   10.4149 C.3     1  UNL1        0.0739
     10 C          66.3652   96.2757   11.7556 C.3     1  UNL1        0.0388
     11 C          65.9102   94.9243   12.2212 C.3     1  UNL1        0.0937
     12 N          65.8892   93.6314   11.4609 N.pl3   1  UNL1       -0.2905
     13 C          66.3181   93.3706   10.0474 C.3     1  UNL1        0.1095
     14 C          66.8737   94.3381    9.0450 C.3     1  UNL1        0.0939
     15 C          62.6259   89.6034   11.8167 C.ar    1  UNL1        0.0192
     16 C          61.3300   90.2551   11.4347 C.ar    1  UNL1        0.0015
     17 C          60.2167   89.4305   10.8597 C.ar    1  UNL1        0.0000
     18 C          60.3993   87.9542   10.6669 C.ar    1  UNL1        0.0000
     19 C          61.6953   87.3025   11.0490 C.ar    1  UNL1        0.0001
     20 C          62.8086   88.1272   11.6239 C.ar    1  UNL1        0.0015
     21 C          61.8778   85.8263   10.8561 C.2     1  UNL1        0.0012
     22 C          62.7398   85.0469   11.8045 C.2     1  UNL1        0.0151
     23 C          62.9223   83.5705   11.6116 C.2     1  UNL1        0.0729
     24 O          62.3763   82.6086   12.6247 O.co2   1  UNL1       -0.5446
     25 O          63.6508   83.0562   10.4055 O.co2   1  UNL1       -0.5446
@<TRIPOS>UNITY_ATOM_ATTR
24 1
charge -1
@<TRIPOS>BOND
     1     7     8    1
     2     8     9    1
     3     9    10    1
     4    10    11    1
     5    11    12    1
     6    12     1    1
     7     1     2   ar
     8     2     3   ar
     9     3     4   ar
    10     4     5   ar
    11     5    15    1
    12    15    16   ar
    13    16    17   ar
    14    17    18   ar
    15    18    19   ar
    16    19    21    1
    17    21    22    2
    18    22    23    1
    19    23    24   ar
    20    23    25   ar
    21    19    20   ar
    22     5     6   ar
    23    12    13    1
    24    13    14    1
    25    14     8    1
    26     6     1   ar
    27    20    15   ar
@<TRIPOS>MOLECULE
*****
 25 27 0 0 0
SMALL
GASTEIGER

@<TRIPOS>ATOM
      1 C          63.0229   85.9501   12.0395 C.ar    1  UNL1        0.1511
      2 C          63.4235   84.7150   12.7906 C.ar    1  UNL1        0.1331
      3 N          64.0108   84.8310   14.1660 N.ar    1  UNL1       -0.2378
      4 C          64.1976   86.1820   14.7903 C.ar    1  UNL1        0.1180
      5 C          63.7970   87.4172   14.0392 C.ar    1  UNL1        0.1018
      6 N          63.2097   87.3012   12.6638 N.ar    1  UNL1       -0.2275
      7 C          61.6821   84.6469    6.0284 C.3     1  UNL1        0.0897
      8 N          61.7177   85.1364    7.4458 N.3     1  UNL1       -0.2700
      9 C          60.5803   86.0240    7.8567 C.3     1  UNL1        0.0739
     10 C          60.3305   86.6679    9.1881 C.3     1  UNL1        0.0388
     11 C          61.1561   86.5835   10.4376 C.3     1  UNL1        0.0937
     12 N          62.4356   85.8342   10.6642 N.pl3   1  UNL1       -0.2905
     13 C          63.2055   84.9843    9.6972 C.3     1  UNL1        0.1095
     14 C          62.8861   84.6737    8.2650 C.3     1  UNL1        0.0939
     15 C          63.9838   88.7682   14.6635 C.ar    1  UNL1        0.0192
     16 C          63.3616   89.0721   15.9941 C.ar    1  UNL1        0.0015
     17 C          63.5484   90.4231   16.6184 C.ar    1  UNL1        0.0000
     18 C          64.3574   91.4703   15.9122 C.ar    1  UNL1        0.0000
     19 C          64.9796   91.1664   14.5815 C.ar    1  UNL1        0.0001
     20 C          64.7929   89.8154   13.9572 C.ar    1  UNL1        0.0015
     21 C          65.7887   92.2136   13.8753 C.2     1  UNL1        0.0012
     22 C          65.6287   92.4149   12.3975 C.2     1  UNL1        0.0151
     23 C          66.4377   93.4622   11.6913 C.2     1  UNL1        0.0729
     24 O          66.1550   94.9158   11.9299 O.co2   1  UNL1       -0.5446
     25 O          67.5296   93.0558   10.7465 O.co2   1  UNL1       -0.5446
@<TRIPOS>UNITY_ATOM_ATTR
24 1
charge -1
@<TRIPOS>BOND
     1     7     8    1
     2     8     9    1
     3     9    10    1
     4    10    11    1
     5    11    12    1
     6    12     1    1
     7     1     2   ar
     8     2     3   ar
     9     3     4   ar
    10     4     5   ar
    11     5    15    1
    12    15    16   ar
    13    16    17   ar
    14    17    18   ar
    15    18    19   ar
    16    19    21    1
    17    21    22    2
    18    22    23    1
    19    23    24   ar
    20    23    25   ar
    21    19    20   ar
    22     5     6   ar
    23    12    13    1
    24    13    14    1
    25    14     8    1
    26     6     1   ar
    27    20    15   ar
@<TRIPOS>MOLECULE
*****
 25 27 0 0 0
SMALL
GASTEIGER

@<TRIPOS>ATOM
      1 C          62.3808   87.4571   11.5293 C.ar    1  UNL1        0.1511
      2 C          62.7277   86.1092   12.0888 C.ar    1  UNL1        0.1331
      3 N          63.5711   86.0048   13.3250 N.ar    1  UNL1       -0.2378
      4 C          64.0675   87.2481   14.0015 C.ar    1  UNL1        0.1180
      5 C          63.7205   88.5959   13.4420 C.ar    1  UNL1        0.1018
      6 N          62.8772   88.7004   12.2059 N.ar    1  UNL1       -0.2275
      7 C          58.8936   89.2777    6.6145 C.3     1  UNL1        0.0897
      8 N          59.6705   88.5363    7.6618 N.3     1  UNL1       -0.2700
      9 C          59.7098   87.0446    7.5090 C.3     1  UNL1        0.0739
     10 C          60.3936   86.0329    8.3800 C.3     1  UNL1        0.0388
     11 C          61.2070   86.2629    9.6192 C.3     1  UNL1        0.0937
     12 N          61.5375   87.5615   10.2932 N.pl3   1  UNL1       -0.2905
     13 C          61.1362   88.9508    9.8946 C.3     1  UNL1        0.1095
     14 C          60.3053   89.3846    8.7237 C.3     1  UNL1        0.0939
     15 C          64.2169   89.8392   14.1186 C.ar    1  UNL1        0.0192
     16 C          63.9131   90.0765   15.5682 C.ar    1  UNL1        0.0015
     17 C          64.4094   91.3198   16.2447 C.ar    1  UNL1        0.0000
     18 C          65.2096   92.3259   15.4718 C.ar    1  UNL1        0.0000
     19 C          65.5135   92.0885   14.0221 C.ar    1  UNL1        0.0001
     20 C          65.0171   90.8452   13.3455 C.ar    1  UNL1        0.0015
     21 C          66.3137   93.0945   13.2491 C.2     1  UNL1        0.0012
     22 C          65.8210   93.5829   11.9192 C.2     1  UNL1        0.0151
     23 C          66.6212   94.5890   11.1462 C.2     1  UNL1        0.0729
     24 O          67.7287   94.1326   10.2434 O.co2   1  UNL1       -0.5446
     25 O          66.3140   96.0514   11.2761 O.co2   1  UNL1       -0.5446
@<TRIPOS>UNITY_ATOM_ATTR
24 1
charge -1
@<TRIPOS>BOND
     1     7     8    1
     2     8     9    1
     3     9    10    1
     4    10    11    1
     5    11    12    1
     6    12     1    1
     7     1     2   ar
     8     2     3   ar
     9     3     4   ar
    10     4     5   ar
    11     5    15    1
    12    15    16   ar
    13    16    17   ar
    14    17    18   ar
    15    18    19   ar
    16    19    21    1
    17    21    22    2
    18    22    23    1
    19    23    24   ar
    20    23    25   ar
    21    19    20   ar
    22     5     6   ar
    23    12    13    1
    24    13    14    1
    25    14     8    1
    26     6     1   ar
    27    20    15   ar
@<TRIPOS>MOLECULE
*****
 25 27 0 0 0
SMALL
GASTEIGER

@<TRIPOS>ATOM
      1 C          62.9555   88.3741   12.1046 C.ar    1  UNL1        0.1511
      2 C          63.1335   87.2639   13.0975 C.ar    1  UNL1        0.1331
      3 N          63.9963   87.4706   14.3070 N.ar    1  UNL1       -0.2378
      4 C          64.6812   88.7875   14.5236 C.ar    1  UNL1        0.1180
      5 C          64.5032   89.8977   13.5306 C.ar    1  UNL1        0.1018
      6 N          63.6403   89.6909   12.3211 N.ar    1  UNL1       -0.2275
      7 C          59.1297   88.8975    7.1327 C.3     1  UNL1        0.0897
      8 N          60.0443   88.4476    8.2332 N.3     1  UNL1       -0.2700
      9 C          60.3607   86.9815    8.2581 C.3     1  UNL1        0.0739
     10 C          61.2325   86.2292    9.2191 C.3     1  UNL1        0.0388
     11 C          62.0033   86.7568   10.3928 C.3     1  UNL1        0.0937
     12 N          62.0927   88.1674   10.8952 N.pl3   1  UNL1       -0.2905
     13 C          61.4332   89.3986   10.3480 C.3     1  UNL1        0.1095
     14 C          60.5217   89.5233    9.1634 C.3     1  UNL1        0.0939
     15 C          65.1880   91.2145   13.7472 C.ar    1  UNL1        0.0192
     16 C          65.7199   91.5690   15.1041 C.ar    1  UNL1        0.0015
     17 C          66.4048   92.8858   15.3207 C.ar    1  UNL1        0.0000
     18 C          66.5577   93.8482   14.1803 C.ar    1  UNL1        0.0000
     19 C          66.0258   93.4936   12.8233 C.ar    1  UNL1        0.0001
     20 C          65.3409   92.1767   12.6067 C.ar    1  UNL1        0.0015
     21 C          66.1787   94.4559   11.6829 C.2     1  UNL1        0.0012
     22 C          67.0054   94.0792   10.4893 C.2     1  UNL1        0.0151
     23 C          67.1583   95.0416    9.3489 C.2     1  UNL1        0.0729
     24 O          67.0698   96.5183    9.5968 O.co2   1  UNL1       -0.5446
     25 O          67.3998   94.5272    7.9607 O.co2   1  UNL1       -0.5446
@<TRIPOS>UNITY_ATOM_ATTR
24 1
charge -1
@<TRIPOS>BOND
     1     7     8    1
     2     8     9    1
     3     9    10    1
     4    10    11    1
     5    11    12    1
     6    12     1    1
     7     1     2   ar
     8     2     3   ar
     9     3     4   ar
    10     4     5   ar
    11     5    15    1
    12    15    16   ar
    13    16    17   ar
    14    17    18   ar
    15    18    19   ar
    16    19    21    1
    17    21    22    2
    18    22    23    1
    19    23    24   ar
    20    23    25   ar
    21    19    20   ar
    22     5     6   ar
    23    12    13    1
    24    13    14    1
    25    14     8    1
    26     6     1   ar
    27    20    15   ar
