@<TRIPOS>MOLECULE
*****
 42 47 0 0 0
SMALL
GASTEIGER

@<TRIPOS>ATOM
      1 N          59.5472   95.1584   -3.9194 N.am    1  UNL1       -0.1907
      2 C          60.3879   95.3525   -2.6924 C.2     1  UNL1        0.3220
      3 O          59.8944   95.7925   -1.3461 O.2     1  UNL1       -0.2512
      4 N          61.8088   95.0292   -3.0481 N.am    1  UNL1       -0.2212
      5 C          61.8463   94.6353   -4.4951 C.3     1  UNL1        0.1391
      6 C          61.7286   94.2657   -5.9440 C.3     1  UNL1        0.0449
      7 C          62.9495   93.8628   -6.7167 C.3     1  UNL1        0.0746
      8 N          64.2880   93.8293   -6.0405 N.3     1  UNL1       -0.2676
      9 C          64.4056   94.1989   -4.5915 C.3     1  UNL1        0.0746
     10 C          63.1848   94.6018   -3.8188 C.3     1  UNL1        0.0449
     11 C          60.4485   94.7151   -5.0335 C.2     1  UNL1        0.2529
     12 O          60.0262   94.4060   -6.4393 O.2     1  UNL1       -0.2724
     13 C          55.1017   95.7942   -4.2076 C.ar    1  UNL1       -0.0002
     14 C          55.8001   94.9174   -5.2043 C.ar    1  UNL1        0.0013
     15 C          57.2819   94.7055   -5.1083 C.ar    1  UNL1        0.0154
     16 C          58.0653   95.3703   -4.0155 C.ar    1  UNL1        0.0622
     17 C          57.3670   96.2471   -3.0188 C.ar    1  UNL1        0.0154
     18 C          55.8851   96.4591   -3.1149 C.ar    1  UNL1        0.0013
     19 C          53.8170   96.2145   -6.8859 C.3     1  UNL1        0.0310
     20 C          52.9776   96.2163   -5.6428 C.ar    1  UNL1       -0.0218
     21 C          51.4957   96.4283   -5.7389 C.ar    1  UNL1       -0.0031
     22 C          50.6561   96.4301   -4.4958 C.ar    1  UNL1        0.0137
     23 C          51.2985   96.2199   -3.1567 C.ar    1  UNL1        0.0011
     24 C          52.7803   96.0080   -3.0606 C.ar    1  UNL1       -0.0003
     25 C          53.6199   96.0062   -4.3037 C.ar    1  UNL1       -0.0040
     26 C          49.1743   96.6421   -4.5919 C.2     1  UNL1        0.0729
     27 O          48.3625   96.8385   -3.3460 O.co2   1  UNL1       -0.5446
     28 O          48.5043   96.6576   -5.9339 O.co2   1  UNL1       -0.5446
     29 C          62.9856   95.0892   -2.1200 C.ar    1  UNL1        0.1583
     30 C          63.9380   96.2458   -2.1903 C.ar    1  UNL1        0.1335
     31 N          65.1149   96.3058   -1.2621 N.ar    1  UNL1       -0.2378
     32 C          65.3393   95.2091   -0.2636 C.ar    1  UNL1        0.1196
     33 C          64.3869   94.0524   -0.1934 C.ar    1  UNL1        0.1210
     34 N          63.2101   93.9925   -1.1215 N.ar    1  UNL1       -0.2255
     35 C          65.5088   93.4263   -6.8133 C.3     1  UNL1        0.1183
     36 C          66.6279   94.4052   -7.0116 C.ar    1  UNL1        0.0712
     37 N          68.0438   93.9179   -7.1002 N.ar    1  UNL1       -0.2471
     38 C          69.1629   94.8969   -7.2985 C.ar    1  UNL1        0.0985
     39 C          68.8661   96.3631   -7.4083 C.ar    1  UNL1        0.0203
     40 C          67.4502   96.8504   -7.3197 C.ar    1  UNL1       -0.0015
     41 C          66.3312   95.8715   -7.1214 C.ar    1  UNL1       -0.0069
     42 C          64.9153   96.3588   -7.0328 C.3     1  UNL1        0.0323
@<TRIPOS>UNITY_ATOM_ATTR
27 1
charge -1
@<TRIPOS>BOND
     1    19    20    1
     2    20    21   ar
     3    21    22   ar
     4    22    26    1
     5    26    27   ar
     6    26    28   ar
     7    22    23   ar
     8    23    24   ar
     9    24    25   ar
    10    25    13    1
    11    13    14   ar
    12    14    15   ar
    13    15    16   ar
    14    16     1    1
    15     1     2   am
    16     2     3    2
    17     2     4   am
    18     4    29    1
    19    29    30   ar
    20    30    31   ar
    21    31    32   ar
    22    32    33   ar
    23    33    34   ar
    24     4     5    1
    25     5     6    1
    26     6     7    1
    27     7     8    1
    28     8    35    1
    29    35    36    1
    30    36    37   ar
    31    37    38   ar
    32    38    39   ar
    33    39    40   ar
    34    40    41   ar
    35    41    42    1
    36     8     9    1
    37     9    10    1
    38     5    11    1
    39    11    12    2
    40    16    17   ar
    41    17    18   ar
    42    25    20   ar
    43    18    13   ar
    44    11     1   am
    45    34    29   ar
    46    10     5    1
    47    41    36   ar
