@<TRIPOS>MOLECULE
*****
 21 23 0 0 0
SMALL
GASTEIGER

@<TRIPOS>ATOM
      1 C          63.5401   90.0992   12.3323 C.ar    1  UNL1        0.0266
      2 C          63.8371   89.3258   13.5826 C.ar    1  UNL1        0.0994
      3 N          64.8250   89.8589   14.5775 N.ar    1  UNL1       -0.2423
      4 C          65.5159   91.1656   14.3219 C.ar    1  UNL1        0.0985
      5 C          66.5296   91.9368   15.1144 C.ar    1  UNL1        0.0392
      6 C          66.8590   93.1869   14.3537 C.ar    1  UNL1        0.0779
      7 N          66.0490   93.1883   13.0912 N.ar    1  UNL1       -0.3165
      8 C          65.2189   91.9391   13.0716 C.ar    1  UNL1        0.0782
      9 C          64.2311   91.4059   12.0767 C.ar    1  UNL1        0.0208
     10 C          60.6261   86.7894    9.4280 C.3     1  UNL1        0.0382
     11 C          61.2128   88.0448   10.0024 C.ar    1  UNL1        0.0076
     12 C          60.8511   89.4467    9.6103 C.ar    1  UNL1        0.0027
     13 C          61.6789   90.3870   10.4353 C.ar    1  UNL1        0.0067
     14 C          62.5522   89.5661   11.3374 C.ar    1  UNL1        0.0307
     15 S          62.2641   88.1186   11.0698 S.2     1  UNL1       -0.0912
     16 C          66.0660   94.2522   12.0339 C.3     1  UNL1        0.1920
     17 C          66.8121   94.0244   10.7527 C.2     1  UNL1        0.2488
     18 O          67.6820   92.8125   10.5966 O.2     1  UNL1       -0.2728
     19 N          66.6882   95.0086    9.6275 N.am    1  UNL1       -0.2744
     20 C          67.4343   94.7808    8.3463 C.3     1  UNL1        0.1150
     21 C          65.8183   96.2205    9.7834 C.3     1  UNL1        0.1150
@<TRIPOS>BOND
     1    10    11    1
     2    11    12   ar
     3    12    13   ar
     4    13    14   ar
     5    14     1    1
     6     1     2   ar
     7     2     3   ar
     8     3     4   ar
     9     4     5   ar
    10     5     6   ar
    11     6     7   ar
    12     7    16    1
    13    16    17    1
    14    17    18    2
    15    17    19   am
    16    19    20    1
    17    19    21    1
    18     7     8   ar
    19     8     9   ar
    20    14    15   ar
    21    15    11   ar
    22     9     1   ar
    23     8     4   ar
@<TRIPOS>MOLECULE
*****
 21 23 0 0 0
SMALL
GASTEIGER

@<TRIPOS>ATOM
      1 C          62.0364   87.4288   11.0068 C.ar    1  UNL1        0.0266
      2 C          62.4530   88.7406   11.6031 C.ar    1  UNL1        0.0994
      3 N          63.3078   88.7665   12.8354 N.ar    1  UNL1       -0.2423
      4 C          63.7460   87.4806   13.4714 C.ar    1  UNL1        0.0985
      5 C          64.5848   87.1942   14.6816 C.ar    1  UNL1        0.0392
      6 C          64.6865   85.7054   14.8332 C.ar    1  UNL1        0.0779
      7 N          63.9106   85.0717   13.7167 N.ar    1  UNL1       -0.3165
      8 C          63.3294   86.1689   12.8751 C.ar    1  UNL1        0.0782
      9 C          62.4746   86.1430   11.6428 C.ar    1  UNL1        0.0208
     10 C          59.0641   88.9693    6.9234 C.3     1  UNL1        0.0382
     11 C          59.8154   88.1109    7.8975 C.ar    1  UNL1        0.0076
     12 C          59.9170   86.6148    7.8586 C.ar    1  UNL1        0.0027
     13 C          60.7613   86.1773    9.0186 C.ar    1  UNL1        0.0067
     14 C          61.1816   87.4029    9.7744 C.ar    1  UNL1        0.0307
     15 S          60.5970   88.5979    9.0816 S.2     1  UNL1       -0.0912
     16 C          63.7451   83.5993   13.4829 C.3     1  UNL1        0.1920
     17 C          62.5767   82.8719   14.0794 C.2     1  UNL1        0.2488
     18 O          61.8537   83.4531   15.2581 O.2     1  UNL1       -0.2728
     19 N          62.1313   81.5632   13.4971 N.am    1  UNL1       -0.2744
     20 C          60.9629   80.8358   14.0936 C.3     1  UNL1        0.1150
     21 C          62.8542   80.9819   12.3184 C.3     1  UNL1        0.1150
@<TRIPOS>BOND
     1    10    11    1
     2    11    12   ar
     3    12    13   ar
     4    13    14   ar
     5    14     1    1
     6     1     2   ar
     7     2     3   ar
     8     3     4   ar
     9     4     5   ar
    10     5     6   ar
    11     6     7   ar
    12     7    16    1
    13    16    17    1
    14    17    18    2
    15    17    19   am
    16    19    20    1
    17    19    21    1
    18     7     8   ar
    19     8     9   ar
    20    14    15   ar
    21    15    11   ar
    22     9     1   ar
    23     8     4   ar
@<TRIPOS>MOLECULE
*****
 21 23 0 0 0
SMALL
GASTEIGER

@<TRIPOS>ATOM
      1 C          66.1316   92.9235   11.8650 C.ar    1  UNL1        0.0266
      2 C          66.7935   93.0027   13.2087 C.ar    1  UNL1        0.0994
      3 N          66.2328   92.2329   14.3675 N.ar    1  UNL1       -0.2423
      4 C          65.0102   91.3837   14.1826 C.ar    1  UNL1        0.0985
      5 C          64.2355   90.5192   15.1326 C.ar    1  UNL1        0.0392
      6 C          63.0948   89.9057   14.3760 C.ar    1  UNL1        0.0779
      7 N          63.1645   90.3910   12.9584 N.ar    1  UNL1       -0.3165
      8 C          64.3483   91.3045   12.8389 C.ar    1  UNL1        0.0782
      9 C          64.9090   92.0744   11.6801 C.ar    1  UNL1        0.0208
     10 C          67.2834   96.8555    8.5343 C.3     1  UNL1        0.0382
     11 C          67.2218   95.5007    9.1752 C.ar    1  UNL1        0.0076
     12 C          67.8887   94.2554    8.6706 C.ar    1  UNL1        0.0027
     13 C          67.5615   93.1385    9.6168 C.ar    1  UNL1        0.0067
     14 C          66.6923   93.6934   10.7061 C.ar    1  UNL1        0.0307
     15 S          66.4824   95.1533   10.4332 S.2     1  UNL1       -0.0912
     16 C          62.2169   90.0268   11.8542 C.3     1  UNL1        0.1920
     17 C          62.1276   88.6064   11.3805 C.2     1  UNL1        0.2488
     18 O          62.9307   87.5372   12.0601 O.2     1  UNL1       -0.2728
     19 N          61.2353   88.2551   10.2271 N.am    1  UNL1       -0.2744
     20 C          61.1460   86.8347    9.7534 C.3     1  UNL1        0.1150
     21 C          60.4322   89.3242    9.5474 C.3     1  UNL1        0.1150
@<TRIPOS>BOND
     1    10    11    1
     2    11    12   ar
     3    12    13   ar
     4    13    14   ar
     5    14     1    1
     6     1     2   ar
     7     2     3   ar
     8     3     4   ar
     9     4     5   ar
    10     5     6   ar
    11     6     7   ar
    12     7    16    1
    13    16    17    1
    14    17    18    2
    15    17    19   am
    16    19    20    1
    17    19    21    1
    18     7     8   ar
    19     8     9   ar
    20    14    15   ar
    21    15    11   ar
    22     9     1   ar
    23     8     4   ar
@<TRIPOS>MOLECULE
*****
 21 23 0 0 0
SMALL
GASTEIGER

@<TRIPOS>ATOM
      1 C          62.1446   85.7993   10.5425 C.ar    1  UNL1        0.0266
      2 C          61.1437   85.8564    9.4267 C.ar    1  UNL1        0.0994
      3 N          60.4381   87.1433    9.1173 N.ar    1  UNL1       -0.2423
      4 C          60.7333   88.3732    9.9237 C.ar    1  UNL1        0.0985
      5 C          60.1986   89.7729    9.8517 C.ar    1  UNL1        0.0392
      6 C          60.8690   90.5808   10.9230 C.ar    1  UNL1        0.0779
      7 N          61.8181   89.6805   11.6570 N.ar    1  UNL1       -0.3165
      8 C          61.7342   88.3162   11.0394 C.ar    1  UNL1        0.0782
      9 C          62.4398   87.0292   11.3488 C.ar    1  UNL1        0.0208
     10 C          63.9238   81.5370   13.1015 C.3     1  UNL1        0.0382
     11 C          63.6681   82.5532   12.0281 C.ar    1  UNL1        0.0076
     12 C          64.2046   82.5107   10.6279 C.ar    1  UNL1        0.0027
     13 C          63.6991   83.7215    9.9010 C.ar    1  UNL1        0.0067
     14 C          62.8503   84.5123   10.8519 C.ar    1  UNL1        0.0307
     15 S          62.8312   83.7903   12.1665 S.2     1  UNL1       -0.0912
     16 C          62.6968   90.0753   12.8068 C.3     1  UNL1        0.1920
     17 C          63.8738   90.9762   12.5765 C.2     1  UNL1        0.2488
     18 O          64.1835   91.4666   11.1932 O.2     1  UNL1       -0.2728
     19 N          64.7410   91.3867   13.7294 N.am    1  UNL1       -0.2744
     20 C          65.9180   92.2876   13.4991 C.3     1  UNL1        0.1150
     21 C          64.4314   90.8964   15.1128 C.3     1  UNL1        0.1150
@<TRIPOS>BOND
     1    10    11    1
     2    11    12   ar
     3    12    13   ar
     4    13    14   ar
     5    14     1    1
     6     1     2   ar
     7     2     3   ar
     8     3     4   ar
     9     4     5   ar
    10     5     6   ar
    11     6     7   ar
    12     7    16    1
    13    16    17    1
    14    17    18    2
    15    17    19   am
    16    19    20    1
    17    19    21    1
    18     7     8   ar
    19     8     9   ar
    20    14    15   ar
    21    15    11   ar
    22     9     1   ar
    23     8     4   ar
@<TRIPOS>MOLECULE
*****
 21 23 0 0 0
SMALL
GASTEIGER

@<TRIPOS>ATOM
      1 C          62.6776   89.8138   11.6470 C.ar    1  UNL1        0.0266
      2 C          61.5357   90.6510   11.1520 C.ar    1  UNL1        0.0994
      3 N          60.5136   90.0553   10.2298 N.ar    1  UNL1       -0.2423
      4 C          60.6333   88.6224    9.8028 C.ar    1  UNL1        0.0985
      5 C          59.7849   87.7672    8.9089 C.ar    1  UNL1        0.0392
      6 C          60.4024   86.4015    8.8516 C.ar    1  UNL1        0.0779
      7 N          61.6325   86.4126    9.7100 N.ar    1  UNL1       -0.3165
      8 C          61.7752   87.7852   10.2979 C.ar    1  UNL1        0.0782
      9 C          62.7973   88.3809   11.2200 C.ar    1  UNL1        0.0208
     10 C          66.3118   93.0496   13.6971 C.3     1  UNL1        0.0382
     11 C          65.3702   91.8968   13.5115 C.ar    1  UNL1        0.0076
     12 C          65.1752   90.7554   14.4651 C.ar    1  UNL1        0.0027
     13 C          64.1428   89.8362   13.8827 C.ar    1  UNL1        0.0067
     14 C          63.6998   90.4095   12.5692 C.ar    1  UNL1        0.0307
     15 S          64.4584   91.6830   12.3399 S.2     1  UNL1       -0.0912
     16 C          62.5575   85.2544    9.9402 C.3     1  UNL1        0.1920
     17 C          62.6967   84.6671   11.3134 C.2     1  UNL1        0.2488
     18 O          61.9999   85.3075   12.4772 O.2     1  UNL1       -0.2728
     19 N          63.5325   83.4393   11.5228 N.am    1  UNL1       -0.2744
     20 C          63.6717   82.8519   12.8960 C.3     1  UNL1        0.1150
     21 C          64.2293   82.7988   10.3591 C.3     1  UNL1        0.1150
@<TRIPOS>BOND
     1    10    11    1
     2    11    12   ar
     3    12    13   ar
     4    13    14   ar
     5    14     1    1
     6     1     2   ar
     7     2     3   ar
     8     3     4   ar
     9     4     5   ar
    10     5     6   ar
    11     6     7   ar
    12     7    16    1
    13    16    17    1
    14    17    18    2
    15    17    19   am
    16    19    20    1
    17    19    21    1
    18     7     8   ar
    19     8     9   ar
    20    14    15   ar
    21    15    11   ar
    22     9     1   ar
    23     8     4   ar
@<TRIPOS>MOLECULE
*****
 21 23 0 0 0
SMALL
GASTEIGER

@<TRIPOS>ATOM
      1 C          63.4022   85.3550   13.1492 C.ar    1  UNL1        0.0266
      2 C          63.9794   85.6965   14.4908 C.ar    1  UNL1        0.0994
      3 N          64.2248   87.1298   14.8588 N.ar    1  UNL1       -0.2423
      4 C          63.8929   88.2215   13.8851 C.ar    1  UNL1        0.0985
      5 C          64.0238   89.7136   13.9672 C.ar    1  UNL1        0.0392
      6 C          63.5275   90.2941   12.6762 C.ar    1  UNL1        0.0779
      7 N          63.0899   89.1608   11.7963 N.ar    1  UNL1       -0.3165
      8 C          63.3157   87.8799   12.5434 C.ar    1  UNL1        0.0782
      9 C          63.0704   86.4467   12.1755 C.ar    1  UNL1        0.0208
     10 C          62.1747   80.2289   13.4630 C.3     1  UNL1        0.0382
     11 C          62.5926   81.5655   12.9254 C.ar    1  UNL1        0.0076
     12 C          62.9659   81.8665   11.5041 C.ar    1  UNL1        0.0027
     13 C          63.3146   83.3227   11.4149 C.ar    1  UNL1        0.0067
     14 C          63.1568   83.9216   12.7811 C.ar    1  UNL1        0.0307
     15 S          62.7106   82.8356   13.7146 S.2     1  UNL1       -0.0912
     16 C          62.5255   89.2864   10.4122 C.3     1  UNL1        0.1920
     17 C          61.1337   88.8074   10.1234 C.2     1  UNL1        0.2488
     18 O          59.9534   89.6014   10.5994 O.2     1  UNL1       -0.2728
     19 N          60.9221   87.5344    9.3588 N.am    1  UNL1       -0.2744
     20 C          59.5303   87.0554    9.0700 C.3     1  UNL1        0.1150
     21 C          62.1023   86.7404    8.8828 C.3     1  UNL1        0.1150
@<TRIPOS>BOND
     1    10    11    1
     2    11    12   ar
     3    12    13   ar
     4    13    14   ar
     5    14     1    1
     6     1     2   ar
     7     2     3   ar
     8     3     4   ar
     9     4     5   ar
    10     5     6   ar
    11     6     7   ar
    12     7    16    1
    13    16    17    1
    14    17    18    2
    15    17    19   am
    16    19    20    1
    17    19    21    1
    18     7     8   ar
    19     8     9   ar
    20    14    15   ar
    21    15    11   ar
    22     9     1   ar
    23     8     4   ar
@<TRIPOS>MOLECULE
*****
 21 23 0 0 0
SMALL
GASTEIGER

@<TRIPOS>ATOM
      1 C          63.5244   89.8228   12.5092 C.ar    1  UNL1        0.0266
      2 C          62.6741   90.3819   11.4073 C.ar    1  UNL1        0.0994
      3 N          61.8576   89.4614   10.5494 N.ar    1  UNL1       -0.2423
      4 C          61.8915   87.9817   10.7934 C.ar    1  UNL1        0.0985
      5 C          61.1989   86.8366   10.1158 C.ar    1  UNL1        0.0392
      6 C          61.6212   85.5698   10.7990 C.ar    1  UNL1        0.0779
      7 N          62.5747   85.9320   11.8989 N.ar    1  UNL1       -0.3165
      8 C          62.7417   87.4226   11.8954 C.ar    1  UNL1        0.0782
      9 C          63.5582   88.3431   12.7533 C.ar    1  UNL1        0.0208
     10 C          66.6680   93.7711   14.0613 C.3     1  UNL1        0.0382
     11 C          65.7858   92.5581   14.0806 C.ar    1  UNL1        0.0076
     12 C          65.4088   91.7613   15.2943 C.ar    1  UNL1        0.0027
     13 C          64.5157   90.6397   14.8534 C.ar    1  UNL1        0.0067
     14 C          64.3409   90.7433   13.3672 C.ar    1  UNL1        0.0307
     15 S          65.1258   91.9289   12.8896 S.2     1  UNL1       -0.0912
     16 C          63.2437   84.9720   12.8374 C.3     1  UNL1        0.1920
     17 C          62.9091   84.9962   14.2994 C.2     1  UNL1        0.2488
     18 O          61.5720   84.5063   14.7709 O.2     1  UNL1       -0.2728
     19 N          63.9114   85.5103   15.2899 N.am    1  UNL1       -0.2744
     20 C          63.5767   85.5345   16.7519 C.3     1  UNL1        0.1150
     21 C          65.2484   86.0002   14.8184 C.3     1  UNL1        0.1150
@<TRIPOS>BOND
     1    10    11    1
     2    11    12   ar
     3    12    13   ar
     4    13    14   ar
     5    14     1    1
     6     1     2   ar
     7     2     3   ar
     8     3     4   ar
     9     4     5   ar
    10     5     6   ar
    11     6     7   ar
    12     7    16    1
    13    16    17    1
    14    17    18    2
    15    17    19   am
    16    19    20    1
    17    19    21    1
    18     7     8   ar
    19     8     9   ar
    20    14    15   ar
    21    15    11   ar
    22     9     1   ar
    23     8     4   ar
@<TRIPOS>MOLECULE
*****
 21 23 0 0 0
SMALL
GASTEIGER

@<TRIPOS>ATOM
      1 C          63.2526   93.6131   -1.7602 C.ar    1  UNL1        0.0266
      2 C          64.0587   93.8590   -0.5194 C.ar    1  UNL1        0.0994
      3 N          63.4037   93.7828    0.8279 N.ar    1  UNL1       -0.2423
      4 C          61.9426   93.4605    0.9343 C.ar    1  UNL1        0.0985
      5 C          61.0297   93.3177    2.1160 C.ar    1  UNL1        0.0392
      6 C          59.6595   92.9835    1.6055 C.ar    1  UNL1        0.0779
      7 N          59.7254   92.9197    0.1083 N.ar    1  UNL1       -0.3165
      8 C          61.1365   93.2145   -0.3065 C.ar    1  UNL1        0.0782
      9 C          61.7915   93.2908   -1.6538 C.ar    1  UNL1        0.0208
     10 C          65.6034   95.4836   -6.1026 C.3     1  UNL1        0.0382
     11 C          64.9881   94.5491   -5.1035 C.ar    1  UNL1        0.0076
     12 C          64.8429   93.0641   -5.2581 C.ar    1  UNL1        0.0027
     13 C          64.1752   92.5328   -4.0245 C.ar    1  UNL1        0.0067
     14 C          63.9076   93.6893   -3.1075 C.ar    1  UNL1        0.0307
     15 S          64.4100   94.9355   -3.7743 S.2     1  UNL1       -0.0912
     16 C          58.5813   92.6147   -0.8125 C.3     1  UNL1        0.1920
     17 C          57.5121   93.6406   -1.0456 C.2     1  UNL1        0.2488
     18 O          57.7178   95.0550   -0.5905 O.2     1  UNL1       -0.2728
     19 N          56.2372   93.2522   -1.7339 N.am    1  UNL1       -0.2744
     20 C          55.1680   94.2781   -1.9670 C.3     1  UNL1        0.1150
     21 C          56.0314   91.8379   -2.1891 C.3     1  UNL1        0.1150
@<TRIPOS>BOND
     1    10    11    1
     2    11    12   ar
     3    12    13   ar
     4    13    14   ar
     5    14     1    1
     6     1     2   ar
     7     2     3   ar
     8     3     4   ar
     9     4     5   ar
    10     5     6   ar
    11     6     7   ar
    12     7    16    1
    13    16    17    1
    14    17    18    2
    15    17    19   am
    16    19    20    1
    17    19    21    1
    18     7     8   ar
    19     8     9   ar
    20    14    15   ar
    21    15    11   ar
    22     9     1   ar
    23     8     4   ar
@<TRIPOS>MOLECULE
*****
 21 23 0 0 0
SMALL
GASTEIGER

@<TRIPOS>ATOM
      1 C          59.8169   92.8956   -0.9964 C.ar    1  UNL1        0.0266
      2 C          59.9335   92.4844    0.4414 C.ar    1  UNL1        0.0994
      3 N          61.2300   92.6712    1.1721 N.ar    1  UNL1       -0.2423
      4 C          62.4101   93.2692    0.4650 C.ar    1  UNL1        0.0985
      5 C          63.8060   93.5730    0.9224 C.ar    1  UNL1        0.0392
      6 C          64.5522   94.1720   -0.2328 C.ar    1  UNL1        0.0779
      7 N          63.6174   94.2383   -1.4041 N.ar    1  UNL1       -0.3165
      8 C          62.2935   93.6804   -0.9728 C.ar    1  UNL1        0.0782
      9 C          60.9970   93.4936   -1.7035 C.ar    1  UNL1        0.0208
     10 C          56.2591   92.4096   -4.8677 C.3     1  UNL1        0.0382
     11 C          56.8850   92.4855   -3.5066 C.ar    1  UNL1        0.0076
     12 C          56.1652   92.3575   -2.1968 C.ar    1  UNL1        0.0027
     13 C          57.1759   92.4956   -1.0971 C.ar    1  UNL1        0.0067
     14 C          58.5203   92.7089   -1.7272 C.ar    1  UNL1        0.0307
     15 S          58.3405   92.7026   -3.2164 S.2     1  UNL1       -0.0912
     16 C          63.9484   94.7694   -2.7673 C.3     1  UNL1        0.1920
     17 C          64.3519   93.8265   -3.8619 C.2     1  UNL1        0.2488
     18 O          64.1329   92.3515   -3.6998 O.2     1  UNL1       -0.2728
     19 N          64.9745   94.3586   -5.1186 N.am    1  UNL1       -0.2744
     20 C          65.3781   93.4158   -6.2132 C.3     1  UNL1        0.1150
     21 C          65.1936   95.8336   -5.2807 C.3     1  UNL1        0.1150
@<TRIPOS>BOND
     1    10    11    1
     2    11    12   ar
     3    12    13   ar
     4    13    14   ar
     5    14     1    1
     6     1     2   ar
     7     2     3   ar
     8     3     4   ar
     9     4     5   ar
    10     5     6   ar
    11     6     7   ar
    12     7    16    1
    13    16    17    1
    14    17    18    2
    15    17    19   am
    16    19    20    1
    17    19    21    1
    18     7     8   ar
    19     8     9   ar
    20    14    15   ar
    21    15    11   ar
    22     9     1   ar
    23     8     4   ar
