@<TRIPOS>MOLECULE
*****
 34 39 0 0 0
SMALL
GASTEIGER

@<TRIPOS>ATOM
      1 N          64.1053   90.8251   12.6002 N.3     1  UNL1       -0.1583
      2 C          65.2384   91.8079   12.6235 C.3     1  UNL1        0.0795
      3 C          65.4820   92.6998   11.4424 C.3     1  UNL1        0.0178
      4 C          64.5926   92.6090   10.2379 C.3     1  UNL1        0.0029
      5 C          63.4596   91.6263   10.2145 C.3     1  UNL1        0.0178
      6 C          63.2160   90.7343   11.3957 C.3     1  UNL1        0.0798
      7 O          64.4341   88.7621   13.4299 O.2     1  UNL1       -0.1528
      8 S          63.8617   89.9332   13.7813 S.O2    1  UNL1        0.0632
      9 O          63.1455   91.0518   14.4782 O.2     1  UNL1       -0.1528
     10 C          63.6181   89.0412   14.9624 C.ar    1  UNL1        0.1222
     11 C          63.9815   87.5876   14.8921 C.ar    1  UNL1        0.0208
     12 C          63.7379   86.6956   16.0732 C.ar    1  UNL1        0.0128
     13 C          63.1310   87.2572   17.3246 C.ar    1  UNL1        0.0578
     14 CL         62.8873   86.3652   18.5058 Cl      1  UNL1       -0.0822
     15 C          62.7676   88.7108   17.3950 C.ar    1  UNL1        0.0128
     16 C          63.0112   89.6028   16.2139 C.ar    1  UNL1        0.0208
     17 C          66.1278   91.8986   13.8280 C.3     1  UNL1        0.0164
     18 C          67.4263   91.5858   14.5104 C.3     1  UNL1        0.0014
     19 C          66.3696   92.3687   15.2317 C.3     1  UNL1        0.0014
     20 C          62.0830   89.7516   11.3723 C.3     1  UNL1        0.0224
     21 C          60.7263   89.1586   11.6126 C.3     1  UNL1        0.0018
     22 C          61.0455   90.5324   12.1235 C.3     1  UNL1        0.0018
     23 C          62.7269   88.6297   10.6131 C.3     1  UNL1        0.0706
     24 C          62.4961   87.2089   11.0352 C.ar    1  UNL1        0.1805
     25 N          61.8239   86.1448   10.2192 N.ar    1  UNL1       -0.0606
     26 O          61.8093   84.8810   11.0271 O.2     1  UNL1       -0.3359
     27 C          62.4725   85.1641   12.3424 C.ar    1  UNL1        0.2527
     28 N          62.8969   86.6027   12.3474 N.ar    1  UNL1       -0.1937
     29 C          62.6755   84.1810   13.4571 C.3     1  UNL1        0.1614
     30 N          62.5782   82.7090   13.1858 N.3     1  UNL1       -0.2649
     31 C          63.1273   81.9953   11.9862 C.3     1  UNL1        0.0726
     32 C          62.8031   80.5374   12.1256 C.3     1  UNL1        0.0188
     33 C          62.0536   80.3501   13.4114 C.3     1  UNL1        0.0188
     34 C          61.9146   81.6922   14.0667 C.3     1  UNL1        0.0726
@<TRIPOS>BOND
     1     7     8    2
     2     8     9    2
     3     8    10    1
     4    10    11   ar
     5    11    12   ar
     6    12    13   ar
     7    13    14    1
     8    13    15   ar
     9    15    16   ar
    10     8     1    1
    11     1     2    1
    12     2    17    1
    13    17    18    1
    14    18    19    1
    15     2     3    1
    16     3     4    1
    17     4     5    1
    18     5     6    1
    19     6    20    1
    20    20    23    1
    21    23    24    1
    22    24    25   ar
    23    25    26   ar
    24    26    27   ar
    25    27    29    1
    26    29    30    1
    27    30    31    1
    28    31    32    1
    29    32    33    1
    30    33    34    1
    31    27    28   ar
    32    20    21    1
    33    21    22    1
    34    16    10   ar
    35     6     1    1
    36    22    20    1
    37    19    17    1
    38    28    24   ar
    39    34    30    1
@<TRIPOS>MOLECULE
*****
 34 39 0 0 0
SMALL
GASTEIGER

@<TRIPOS>ATOM
      1 N          64.2592   90.9251   12.7395 N.3     1  UNL1       -0.1583
      2 C          65.4328   91.8575   12.7982 C.3     1  UNL1        0.0795
      3 C          65.7144   92.7819   11.6510 C.3     1  UNL1        0.0178
      4 C          64.8224   92.7740   10.4451 C.3     1  UNL1        0.0029
      5 C          63.6489   91.8417   10.3863 C.3     1  UNL1        0.0178
      6 C          63.3672   90.9172   11.5335 C.3     1  UNL1        0.0798
      7 O          64.3254   88.7832   13.4182 O.2     1  UNL1       -0.1528
      8 S          63.9776   90.0007   13.8867 S.O2    1  UNL1        0.0632
      9 O          63.5091   91.1642   14.7093 O.2     1  UNL1       -0.1528
     10 C          63.6960   89.0762   15.0339 C.ar    1  UNL1        0.1222
     11 C          63.1566   89.6226   16.3225 C.ar    1  UNL1        0.0208
     12 C          62.8750   88.6982   17.4697 C.ar    1  UNL1        0.0128
     13 C          63.1328   87.2274   17.3283 C.ar    1  UNL1        0.0578
     14 CL         62.8512   86.3028   18.4756 Cl      1  UNL1       -0.0822
     15 C          63.6722   86.6809   16.0397 C.ar    1  UNL1        0.0128
     16 C          63.9538   87.6053   14.8925 C.ar    1  UNL1        0.0208
     17 C          66.3247   91.8654   14.0042 C.3     1  UNL1        0.0164
     18 C          66.6496   92.3771   15.3763 C.3     1  UNL1        0.0014
     19 C          67.5447   91.3675   14.7209 C.3     1  UNL1        0.0014
     20 C          62.1937   89.9849   11.4748 C.3     1  UNL1        0.0224
     21 C          60.8625   89.3725   11.7956 C.3     1  UNL1        0.0018
     22 C          61.3322   90.5826   12.5475 C.3     1  UNL1        0.0018
     23 C          62.6476   89.0634   10.3817 C.3     1  UNL1        0.0706
     24 C          61.6517   88.5083    9.4069 C.ar    1  UNL1        0.1805
     25 N          61.5018   87.0656    9.0248 N.ar    1  UNL1       -0.0606
     26 O          60.3884   86.9642    8.0248 O.2     1  UNL1       -0.3359
     27 C          59.8502   88.3442    7.7889 C.ar    1  UNL1        0.2527
     28 N          60.6309   89.2985    8.6430 N.ar    1  UNL1       -0.1937
     29 C          58.7281   88.7064    6.8616 C.3     1  UNL1        0.1614
     30 N          58.8292   89.9340    6.0055 N.3     1  UNL1       -0.2649
     31 C          57.6814   90.7761    5.5327 C.3     1  UNL1        0.0726
     32 C          58.2386   91.8975    4.7070 C.3     1  UNL1        0.0188
     33 C          59.7308   91.7485    4.6694 C.3     1  UNL1        0.0188
     34 C          60.0957   90.5350    5.4720 C.3     1  UNL1        0.0726
@<TRIPOS>BOND
     1     7     8    2
     2     8     9    2
     3     8    10    1
     4    10    11   ar
     5    11    12   ar
     6    12    13   ar
     7    13    14    1
     8    13    15   ar
     9    15    16   ar
    10     8     1    1
    11     1     2    1
    12     2    17    1
    13    17    18    1
    14    18    19    1
    15     2     3    1
    16     3     4    1
    17     4     5    1
    18     5     6    1
    19     6    20    1
    20    20    23    1
    21    23    24    1
    22    24    25   ar
    23    25    26   ar
    24    26    27   ar
    25    27    29    1
    26    29    30    1
    27    30    31    1
    28    31    32    1
    29    32    33    1
    30    33    34    1
    31    27    28   ar
    32    20    21    1
    33    21    22    1
    34    16    10   ar
    35     6     1    1
    36    22    20    1
    37    19    17    1
    38    28    24   ar
    39    34    30    1
@<TRIPOS>MOLECULE
*****
 34 39 0 0 0
SMALL
GASTEIGER

@<TRIPOS>ATOM
      1 N          64.4086   91.1412   12.6441 N.3     1  UNL1       -0.1583
      2 C          64.1931   91.7140   11.2746 C.3     1  UNL1        0.0795
      3 C          63.0360   91.2493   10.4409 C.3     1  UNL1        0.0178
      4 C          62.0944   90.2119   10.9766 C.3     1  UNL1        0.0029
      5 C          62.3098   89.6391   12.3461 C.3     1  UNL1        0.0178
      6 C          63.4670   90.1038   13.1799 C.3     1  UNL1        0.0798
      7 O          66.6417   91.0476   12.8835 O.2     1  UNL1       -0.1528
      8 S          65.5657   91.6059   13.4779 S.O2    1  UNL1        0.0632
      9 O          64.6222   92.3612   14.3663 O.2     1  UNL1       -0.1528
     10 C          66.7229   92.0706   14.3116 C.ar    1  UNL1        0.1222
     11 C          68.1150   92.0235   13.7550 C.ar    1  UNL1        0.0208
     12 C          69.2722   92.4882   14.5887 C.ar    1  UNL1        0.0128
     13 C          69.0372   92.9999   15.9789 C.ar    1  UNL1        0.0578
     14 CL         70.1944   93.4646   16.8127 Cl      1  UNL1       -0.0822
     15 C          67.6451   93.0470   16.5355 C.ar    1  UNL1        0.0128
     16 C          66.4879   92.5824   15.7019 C.ar    1  UNL1        0.0208
     17 C          65.1348   92.7514   10.7388 C.3     1  UNL1        0.0164
     18 C          65.4743   94.1902   10.4847 C.3     1  UNL1        0.0014
     19 C          66.4262   93.1095   10.0651 C.3     1  UNL1        0.0014
     20 C          63.6824   89.5310   14.5494 C.3     1  UNL1        0.0224
     21 C          63.5534   89.3327   16.0306 C.3     1  UNL1        0.0018
     22 C          62.7652   90.4103   15.3467 C.3     1  UNL1        0.0018
     23 C          64.6744   88.4529   14.2277 C.3     1  UNL1        0.0706
     24 C          64.2136   87.0351   14.0613 C.ar    1  UNL1        0.1805
     25 N          63.2815   86.5298   13.0002 N.ar    1  UNL1       -0.0606
     26 O          63.0958   85.0562   13.2099 O.2     1  UNL1       -0.3359
     27 C          63.9132   84.6508   14.4004 C.ar    1  UNL1        0.2527
     28 N          64.6040   85.8738   14.9266 N.ar    1  UNL1       -0.1937
     29 C          64.0209   83.2655   14.9656 C.3     1  UNL1        0.1614
     30 N          63.1897   82.1554   14.3938 N.3     1  UNL1       -0.2649
     31 C          63.6907   81.0293   13.5388 C.3     1  UNL1        0.0726
     32 C          62.5222   80.1546   13.1932 C.3     1  UNL1        0.0188
     33 C          61.2991   80.7401   13.8344 C.3     1  UNL1        0.0188
     34 C          61.7116   81.9767   14.5764 C.3     1  UNL1        0.0726
@<TRIPOS>BOND
     1     7     8    2
     2     8     9    2
     3     8    10    1
     4    10    11   ar
     5    11    12   ar
     6    12    13   ar
     7    13    14    1
     8    13    15   ar
     9    15    16   ar
    10     8     1    1
    11     1     2    1
    12     2    17    1
    13    17    18    1
    14    18    19    1
    15     2     3    1
    16     3     4    1
    17     4     5    1
    18     5     6    1
    19     6    20    1
    20    20    23    1
    21    23    24    1
    22    24    25   ar
    23    25    26   ar
    24    26    27   ar
    25    27    29    1
    26    29    30    1
    27    30    31    1
    28    31    32    1
    29    32    33    1
    30    33    34    1
    31    27    28   ar
    32    20    21    1
    33    21    22    1
    34    16    10   ar
    35     6     1    1
    36    22    20    1
    37    19    17    1
    38    28    24   ar
    39    34    30    1
@<TRIPOS>MOLECULE
*****
 34 39 0 0 0
SMALL
GASTEIGER

@<TRIPOS>ATOM
      1 N          61.0002   87.1915    8.8976 N.3     1  UNL1       -0.1583
      2 C          60.6208   86.8421    7.4890 C.3     1  UNL1        0.0795
      3 C          59.8421   87.8182    6.6579 C.3     1  UNL1        0.0178
      4 C          59.4427   89.1437    7.2353 C.3     1  UNL1        0.0029
      5 C          59.8221   89.4932    8.6438 C.3     1  UNL1        0.0178
      6 C          60.6009   88.5171    9.4750 C.3     1  UNL1        0.0798
      7 O          60.8698   85.7310   10.6013 O.2     1  UNL1       -0.1528
      8 S          61.7790   86.2154    9.7286 S.O2    1  UNL1        0.0632
      9 O          63.0142   86.5266    8.9367 O.2     1  UNL1       -0.1528
     10 C          62.5577   85.2392   10.5598 C.ar    1  UNL1        0.1222
     11 C          63.4352   84.2205    9.8947 C.ar    1  UNL1        0.0208
     12 C          64.2139   83.2444   10.7258 C.ar    1  UNL1        0.0128
     13 C          64.1151   83.2869   12.2219 C.ar    1  UNL1        0.0578
     14 CL         64.8938   82.3107   13.0531 Cl      1  UNL1       -0.0822
     15 C          63.2376   84.3056   12.8869 C.ar    1  UNL1        0.0128
     16 C          62.4589   85.2818   12.0559 C.ar    1  UNL1        0.0208
     17 C          61.0201   85.5165    6.9116 C.3     1  UNL1        0.0164
     18 C          62.0887   84.5584    6.4755 C.3     1  UNL1        0.0014
     19 C          60.6432   84.1787    6.3475 C.3     1  UNL1        0.0014
     20 C          60.9803   88.8665   10.8835 C.3     1  UNL1        0.0224
     21 C          60.8494   89.1315   12.3541 C.3     1  UNL1        0.0018
     22 C          59.6427   88.7445   11.5514 C.3     1  UNL1        0.0018
     23 C          62.4495   89.1098   10.7048 C.3     1  UNL1        0.0706
     24 C          63.1773   90.0273   11.6421 C.ar    1  UNL1        0.1805
     25 N          63.5090   91.4675   11.3858 N.ar    1  UNL1       -0.0606
     26 O          64.2379   91.9959   12.5857 O.2     1  UNL1       -0.3359
     27 C          64.3566   90.8822   13.5835 C.ar    1  UNL1        0.2527
     28 N          63.7011   89.6656   13.0003 N.ar    1  UNL1       -0.1937
     29 C          65.0151   90.9699   14.9284 C.3     1  UNL1        0.1614
     30 N          66.2939   91.7373   15.0887 N.3     1  UNL1       -0.2649
     31 C          67.4848   91.6661   14.1794 C.3     1  UNL1        0.0726
     32 C          68.5332   92.5955   14.7153 C.3     1  UNL1        0.0188
     33 C          67.9903   93.2411   15.9556 C.3     1  UNL1        0.0188
     34 C          66.6063   92.7107   16.1864 C.3     1  UNL1        0.0726
@<TRIPOS>BOND
     1     7     8    2
     2     8     9    2
     3     8    10    1
     4    10    11   ar
     5    11    12   ar
     6    12    13   ar
     7    13    14    1
     8    13    15   ar
     9    15    16   ar
    10     8     1    1
    11     1     2    1
    12     2    17    1
    13    17    18    1
    14    18    19    1
    15     2     3    1
    16     3     4    1
    17     4     5    1
    18     5     6    1
    19     6    20    1
    20    20    23    1
    21    23    24    1
    22    24    25   ar
    23    25    26   ar
    24    26    27   ar
    25    27    29    1
    26    29    30    1
    27    30    31    1
    28    31    32    1
    29    32    33    1
    30    33    34    1
    31    27    28   ar
    32    20    21    1
    33    21    22    1
    34    16    10   ar
    35     6     1    1
    36    22    20    1
    37    19    17    1
    38    28    24   ar
    39    34    30    1
@<TRIPOS>MOLECULE
*****
 34 39 0 0 0
SMALL
GASTEIGER

@<TRIPOS>ATOM
      1 N          60.9745   87.5253    9.1121 N.3     1  UNL1       -0.1583
      2 C          60.5310   87.1638    7.7255 C.3     1  UNL1        0.0795
      3 C          59.7757   88.1595    6.8961 C.3     1  UNL1        0.0178
      4 C          59.4639   89.5169    7.4533 C.3     1  UNL1        0.0029
      5 C          59.9073   89.8784    8.8398 C.3     1  UNL1        0.0178
      6 C          60.6627   88.8826    9.6693 C.3     1  UNL1        0.0798
      7 O          60.8250   86.1085   10.8508 O.2     1  UNL1       -0.1528
      8 S          61.7298   86.5295    9.9415 S.O2    1  UNL1        0.0632
      9 O          62.9541   86.7632    9.1071 O.2     1  UNL1       -0.1528
     10 C          62.4851   85.5336   10.7709 C.ar    1  UNL1        0.1222
     11 C          63.1719   84.3750   10.1107 C.ar    1  UNL1        0.0208
     12 C          63.9272   83.3792   10.9401 C.ar    1  UNL1        0.0128
     13 C          63.9956   83.5420   12.4296 C.ar    1  UNL1        0.0578
     14 CL         64.7509   82.5462   13.2591 Cl      1  UNL1       -0.0822
     15 C          63.3087   84.7006   13.0898 C.ar    1  UNL1        0.0128
     16 C          62.5535   85.6964   12.2604 C.ar    1  UNL1        0.0208
     17 C          60.8428   85.8064    7.1683 C.3     1  UNL1        0.0164
     18 C          61.8455   84.7890    6.7110 C.3     1  UNL1        0.0014
     19 C          60.3801   84.4730    6.6606 C.3     1  UNL1        0.0014
     20 C          61.1061   89.2441   11.0558 C.3     1  UNL1        0.0224
     21 C          61.0361   89.5646   12.5195 C.3     1  UNL1        0.0018
     22 C          59.7814   89.2515   11.7594 C.3     1  UNL1        0.0018
     23 C          62.5849   89.3623   10.8338 C.3     1  UNL1        0.0706
     24 C          63.3835   90.3614   11.6176 C.ar    1  UNL1        0.1805
     25 N          63.4770   90.4375   13.1127 N.ar    1  UNL1       -0.0606
     26 O          64.3801   91.5829   13.4629 O.2     1  UNL1       -0.3359
     27 C          64.8446   92.2146   12.1842 C.ar    1  UNL1        0.2527
     28 N          64.2286   91.4597   11.0438 N.ar    1  UNL1       -0.1937
     29 C          65.7637   93.3942   12.0666 C.3     1  UNL1        0.1614
     30 N          66.7116   93.4940   10.9083 N.3     1  UNL1       -0.2649
     31 C          67.5975   92.3968   10.3971 C.3     1  UNL1        0.0726
     32 C          68.3734   92.9332    9.2308 C.3     1  UNL1        0.0188
     33 C          67.9670   94.3618    9.0212 C.3     1  UNL1        0.0188
     34 C          66.9399   94.7084   10.0580 C.3     1  UNL1        0.0726
@<TRIPOS>BOND
     1     7     8    2
     2     8     9    2
     3     8    10    1
     4    10    11   ar
     5    11    12   ar
     6    12    13   ar
     7    13    14    1
     8    13    15   ar
     9    15    16   ar
    10     8     1    1
    11     1     2    1
    12     2    17    1
    13    17    18    1
    14    18    19    1
    15     2     3    1
    16     3     4    1
    17     4     5    1
    18     5     6    1
    19     6    20    1
    20    20    23    1
    21    23    24    1
    22    24    25   ar
    23    25    26   ar
    24    26    27   ar
    25    27    29    1
    26    29    30    1
    27    30    31    1
    28    31    32    1
    29    32    33    1
    30    33    34    1
    31    27    28   ar
    32    20    21    1
    33    21    22    1
    34    16    10   ar
    35     6     1    1
    36    22    20    1
    37    19    17    1
    38    28    24   ar
    39    34    30    1
@<TRIPOS>MOLECULE
*****
 34 39 0 0 0
SMALL
GASTEIGER

@<TRIPOS>ATOM
      1 N          64.6530   91.2260   13.5003 N.3     1  UNL1       -0.1583
      2 C          65.5014   92.3104   12.9050 C.3     1  UNL1        0.0795
      3 C          66.5272   93.0081   13.7482 C.3     1  UNL1        0.0178
      4 C          66.7047   92.6215   15.1866 C.3     1  UNL1        0.0029
      5 C          65.8563   91.5371   15.7818 C.3     1  UNL1        0.0178
      6 C          64.8304   90.8394   14.9387 C.3     1  UNL1        0.0798
      7 O          64.2359   89.3826   12.2835 O.2     1  UNL1       -0.1528
      8 S          63.6272   90.5283   12.6571 S.O2    1  UNL1        0.0632
      9 O          62.6745   91.6662   12.8747 O.2     1  UNL1       -0.1528
     10 C          62.6014   89.8306   11.8139 C.ar    1  UNL1        0.1222
     11 C          61.4961   90.6169   11.1737 C.ar    1  UNL1        0.0208
     12 C          60.4703   89.9193   10.3305 C.ar    1  UNL1        0.0128
     13 C          60.5498   88.4352   10.1276 C.ar    1  UNL1        0.0578
     14 CL         59.5240   87.7374    9.2844 Cl      1  UNL1       -0.0822
     15 C          61.6551   87.6488   10.7679 C.ar    1  UNL1        0.0128
     16 C          62.6809   88.3465   11.6110 C.ar    1  UNL1        0.0208
     17 C          65.3240   92.6971   11.4666 C.3     1  UNL1        0.0164
     18 C          65.6720   93.5828   10.3072 C.3     1  UNL1        0.0014
     19 C          64.6687   92.4811   10.1348 C.3     1  UNL1        0.0014
     20 C          63.9821   89.7550   15.5339 C.3     1  UNL1        0.0224
     21 C          62.9036   89.0895   16.3365 C.3     1  UNL1        0.0018
     22 C          63.0249   90.5847   16.3375 C.3     1  UNL1        0.0018
     23 C          64.6445   88.5488   14.9372 C.3     1  UNL1        0.0706
     24 C          64.0143   87.1958   15.0870 C.ar    1  UNL1        0.1805
     25 N          63.4115   86.6382   16.3423 N.ar    1  UNL1       -0.0606
     26 O          62.9009   85.2607   16.0390 O.2     1  UNL1       -0.3359
     27 C          63.1881   84.9672   14.5963 C.ar    1  UNL1        0.2527
     28 N          63.8762   86.1631   14.0080 N.ar    1  UNL1       -0.1937
     29 C          62.8471   83.7000   13.8696 C.3     1  UNL1        0.1614
     30 N          63.3041   83.5005   12.4549 N.3     1  UNL1       -0.2649
     31 C          62.8523   84.2908   11.2626 C.3     1  UNL1        0.0726
     32 C          63.5622   83.7544   10.0550 C.3     1  UNL1        0.0188
     33 C          64.4527   82.6327   10.5009 C.3     1  UNL1        0.0188
     34 C          64.2932   82.4758   11.9841 C.3     1  UNL1        0.0726
@<TRIPOS>BOND
     1     7     8    2
     2     8     9    2
     3     8    10    1
     4    10    11   ar
     5    11    12   ar
     6    12    13   ar
     7    13    14    1
     8    13    15   ar
     9    15    16   ar
    10     8     1    1
    11     1     2    1
    12     2    17    1
    13    17    18    1
    14    18    19    1
    15     2     3    1
    16     3     4    1
    17     4     5    1
    18     5     6    1
    19     6    20    1
    20    20    23    1
    21    23    24    1
    22    24    25   ar
    23    25    26   ar
    24    26    27   ar
    25    27    29    1
    26    29    30    1
    27    30    31    1
    28    31    32    1
    29    32    33    1
    30    33    34    1
    31    27    28   ar
    32    20    21    1
    33    21    22    1
    34    16    10   ar
    35     6     1    1
    36    22    20    1
    37    19    17    1
    38    28    24   ar
    39    34    30    1
@<TRIPOS>MOLECULE
*****
 34 39 0 0 0
SMALL
GASTEIGER

@<TRIPOS>ATOM
      1 N          60.8556   87.2008    8.7267 N.3     1  UNL1       -0.1583
      2 C          60.5494   86.7927    7.3161 C.3     1  UNL1        0.0795
      3 C          59.7683   87.7102    6.4227 C.3     1  UNL1        0.0178
      4 C          59.2933   89.0356    6.9400 C.3     1  UNL1        0.0029
      5 C          59.5995   89.4437    8.3505 C.3     1  UNL1        0.0178
      6 C          60.3807   88.5262    9.2439 C.3     1  UNL1        0.0798
      7 O          60.6940   85.6869   10.3804 O.2     1  UNL1       -0.1528
      8 S          61.6368   86.2833    9.6200 S.O2    1  UNL1        0.0632
      9 O          62.9111   86.7374    8.9721 O.2     1  UNL1       -0.1528
     10 C          62.4179   85.3658   10.5134 C.ar    1  UNL1        0.1222
     11 C          62.2968   85.4876   12.0036 C.ar    1  UNL1        0.0208
     12 C          63.0779   84.5701   12.8970 C.ar    1  UNL1        0.0128
     13 C          63.9801   83.5310   12.3002 C.ar    1  UNL1        0.0578
     14 CL         64.7612   82.6135   13.1936 Cl      1  UNL1       -0.0822
     15 C          64.1012   83.4092   10.8101 C.ar    1  UNL1        0.0128
     16 C          63.3201   84.3267    9.9167 C.ar    1  UNL1        0.0208
     17 C          61.0243   85.4672    6.7988 C.3     1  UNL1        0.0164
     18 C          60.7254   84.0830    6.3044 C.3     1  UNL1        0.0014
     19 C          62.1459   84.5557    6.3975 C.3     1  UNL1        0.0014
     20 C          60.6869   88.9343   10.6545 C.3     1  UNL1        0.0224
     21 C          60.5042   89.1723   12.1242 C.3     1  UNL1        0.0018
     22 C          59.3856   88.5863   11.3146 C.3     1  UNL1        0.0018
     23 C          62.0944   89.4240   10.4843 C.3     1  UNL1        0.0706
     24 C          62.9140   89.7840   11.6880 C.ar    1  UNL1        0.1805
     25 N          63.5204   91.1261   11.9724 N.ar    1  UNL1       -0.0606
     26 O          64.2522   91.0366   13.2787 O.2     1  UNL1       -0.3359
     27 C          64.0980   89.6392   13.8015 C.ar    1  UNL1        0.2527
     28 N          63.2710   88.8651   12.8185 N.ar    1  UNL1       -0.1937
     29 C          64.6705   89.1090   15.0827 C.3     1  UNL1        0.1614
     30 N          63.9679   88.0068   15.8186 N.3     1  UNL1       -0.2649
     31 C          64.0721   86.5407   15.5193 C.3     1  UNL1        0.0726
     32 C          63.2064   85.8050   16.4988 C.3     1  UNL1        0.0188
     33 C          62.5673   86.8165   17.4035 C.3     1  UNL1        0.0188
     34 C          63.0380   88.1773   16.9831 C.3     1  UNL1        0.0726
@<TRIPOS>BOND
     1     7     8    2
     2     8     9    2
     3     8    10    1
     4    10    11   ar
     5    11    12   ar
     6    12    13   ar
     7    13    14    1
     8    13    15   ar
     9    15    16   ar
    10     8     1    1
    11     1     2    1
    12     2    17    1
    13    17    18    1
    14    18    19    1
    15     2     3    1
    16     3     4    1
    17     4     5    1
    18     5     6    1
    19     6    20    1
    20    20    23    1
    21    23    24    1
    22    24    25   ar
    23    25    26   ar
    24    26    27   ar
    25    27    29    1
    26    29    30    1
    27    30    31    1
    28    31    32    1
    29    32    33    1
    30    33    34    1
    31    27    28   ar
    32    20    21    1
    33    21    22    1
    34    16    10   ar
    35     6     1    1
    36    22    20    1
    37    19    17    1
    38    28    24   ar
    39    34    30    1
@<TRIPOS>MOLECULE
*****
 34 39 0 0 0
SMALL
GASTEIGER

@<TRIPOS>ATOM
      1 N          62.9603   87.5742   12.3803 N.3     1  UNL1       -0.1583
      2 C          63.5314   86.6824   13.4427 C.3     1  UNL1        0.0795
      3 C          64.0298   87.2721   14.7287 C.3     1  UNL1        0.0178
      4 C          63.9571   88.7536   14.9524 C.3     1  UNL1        0.0029
      5 C          63.3860   89.6453   13.8901 C.3     1  UNL1        0.0178
      6 C          62.8876   89.0556   12.6040 C.3     1  UNL1        0.0798
      7 O          63.4634   87.2161   10.2190 O.2     1  UNL1       -0.1528
      8 S          62.4619   86.9845   11.0943 S.O2    1  UNL1        0.0632
      9 O          61.1909   86.5723   11.7758 O.2     1  UNL1       -0.1528
     10 C          61.9636   86.3948    9.8082 C.ar    1  UNL1        0.1222
     11 C          62.8592   85.5110    8.9917 C.ar    1  UNL1        0.0208
     12 C          62.3609   84.9213    7.7056 C.ar    1  UNL1        0.0128
     13 C          60.9670   85.2154    7.2361 C.ar    1  UNL1        0.0578
     14 CL         60.4687   84.6257    5.9500 Cl      1  UNL1       -0.0822
     15 C          60.0714   86.0993    8.0526 C.ar    1  UNL1        0.0128
     16 C          60.5697   86.6890    9.3387 C.ar    1  UNL1        0.0208
     17 C          63.6042   85.2010   13.2190 C.3     1  UNL1        0.0164
     18 C          64.3377   84.0002   12.6995 C.3     1  UNL1        0.0014
     19 C          62.9966   83.8360   13.3511 C.3     1  UNL1        0.0014
     20 C          62.3165   89.9474   11.5416 C.3     1  UNL1        0.0224
     21 C          61.3125   90.7295   10.7476 C.3     1  UNL1        0.0018
     22 C          60.8718   89.9412   11.9453 C.3     1  UNL1        0.0018
     23 C          63.5627   90.2633   10.7691 C.3     1  UNL1        0.0706
     24 C          64.2996   91.5445   11.0255 C.ar    1  UNL1        0.1805
     25 N          64.4186   92.6986   10.0748 N.ar    1  UNL1       -0.0606
     26 O          65.2394   93.7638   10.7394 O.2     1  UNL1       -0.3359
     27 C          65.6277   93.2679   12.1007 C.ar    1  UNL1        0.2527
     28 N          65.0469   91.8964   12.2775 N.ar    1  UNL1       -0.1937
     29 C          66.4522   94.0129   13.1084 C.3     1  UNL1        0.1614
     30 N          66.9551   93.3091   14.3338 N.3     1  UNL1       -0.2649
     31 C          66.1332   92.9199   15.5267 C.3     1  UNL1        0.0726
     32 C          67.0384   92.2412   16.5116 C.3     1  UNL1        0.0188
     33 C          68.4196   92.2109   15.9274 C.3     1  UNL1        0.0188
     34 C          68.3681   92.8709   14.5814 C.3     1  UNL1        0.0726
@<TRIPOS>BOND
     1     7     8    2
     2     8     9    2
     3     8    10    1
     4    10    11   ar
     5    11    12   ar
     6    12    13   ar
     7    13    14    1
     8    13    15   ar
     9    15    16   ar
    10     8     1    1
    11     1     2    1
    12     2    17    1
    13    17    18    1
    14    18    19    1
    15     2     3    1
    16     3     4    1
    17     4     5    1
    18     5     6    1
    19     6    20    1
    20    20    23    1
    21    23    24    1
    22    24    25   ar
    23    25    26   ar
    24    26    27   ar
    25    27    29    1
    26    29    30    1
    27    30    31    1
    28    31    32    1
    29    32    33    1
    30    33    34    1
    31    27    28   ar
    32    20    21    1
    33    21    22    1
    34    16    10   ar
    35     6     1    1
    36    22    20    1
    37    19    17    1
    38    28    24   ar
    39    34    30    1
@<TRIPOS>MOLECULE
*****
 34 39 0 0 0
SMALL
GASTEIGER

@<TRIPOS>ATOM
      1 N          63.0485   87.1484   12.4873 N.3     1  UNL1       -0.1583
      2 C          63.4656   85.7658   12.8931 C.3     1  UNL1        0.0795
      3 C          64.3310   85.5680   14.1022 C.3     1  UNL1        0.0178
      4 C          64.7794   86.7527   14.9055 C.3     1  UNL1        0.0029
      5 C          64.3624   88.1352   14.4998 C.3     1  UNL1        0.0178
      6 C          63.4969   88.3331   13.2907 C.3     1  UNL1        0.0798
      7 O          63.0057   87.9272   10.3792 O.2     1  UNL1       -0.1528
      8 S          62.1831   87.3462   11.2783 S.O2    1  UNL1        0.0632
      9 O          61.0253   86.7302   12.0063 O.2     1  UNL1       -0.1528
     10 C          61.3176   87.5440   10.0691 C.ar    1  UNL1        0.1222
     11 C          60.8220   86.3560    9.2991 C.ar    1  UNL1        0.0208
     12 C          59.9567   86.5538    8.0900 C.ar    1  UNL1        0.0128
     13 C          59.5868   87.9396    7.6510 C.ar    1  UNL1        0.0578
     14 CL         58.7214   88.1374    6.4418 Cl      1  UNL1       -0.0822
     15 C          60.0824   89.1276    8.4211 C.ar    1  UNL1        0.0128
     16 C          60.9478   88.9298    9.6301 C.ar    1  UNL1        0.0208
     17 C          63.0171   84.5811   12.0898 C.3     1  UNL1        0.0164
     18 C          62.8588   83.8940   10.7658 C.3     1  UNL1        0.0014
     19 C          62.3988   83.2161   12.0224 C.3     1  UNL1        0.0014
     20 C          63.0799   89.7156   12.8849 C.3     1  UNL1        0.0224
     21 C          62.2214   90.9317   12.7001 C.3     1  UNL1        0.0018
     22 C          61.6639   89.7164   13.3801 C.3     1  UNL1        0.0018
     23 C          64.3510   90.1950   12.2489 C.3     1  UNL1        0.0706
     24 C          64.9612   91.4957   12.6801 C.ar    1  UNL1        0.1805
     25 N          65.2736   91.8983   14.0908 N.ar    1  UNL1       -0.0606
     26 O          65.8717   93.2736   14.0587 O.2     1  UNL1       -0.3359
     27 C          65.9289   93.7208   12.6281 C.ar    1  UNL1        0.2527
     28 N          65.3662   92.6221   11.7761 N.ar    1  UNL1       -0.1937
     29 C          66.4563   95.0361   12.1360 C.3     1  UNL1        0.1614
     30 N          66.8545   95.1939   10.6985 N.3     1  UNL1       -0.2649
     31 C          67.3777   94.1091    9.8043 C.3     1  UNL1        0.0726
     32 C          67.6459   94.7090    8.4560 C.3     1  UNL1        0.0188
     33 C          67.2886   96.1646    8.5168 C.3     1  UNL1        0.0188
     34 C          66.7994   96.4642    9.9027 C.3     1  UNL1        0.0726
@<TRIPOS>BOND
     1     7     8    2
     2     8     9    2
     3     8    10    1
     4    10    11   ar
     5    11    12   ar
     6    12    13   ar
     7    13    14    1
     8    13    15   ar
     9    15    16   ar
    10     8     1    1
    11     1     2    1
    12     2    17    1
    13    17    18    1
    14    18    19    1
    15     2     3    1
    16     3     4    1
    17     4     5    1
    18     5     6    1
    19     6    20    1
    20    20    23    1
    21    23    24    1
    22    24    25   ar
    23    25    26   ar
    24    26    27   ar
    25    27    29    1
    26    29    30    1
    27    30    31    1
    28    31    32    1
    29    32    33    1
    30    33    34    1
    31    27    28   ar
    32    20    21    1
    33    21    22    1
    34    16    10   ar
    35     6     1    1
    36    22    20    1
    37    19    17    1
    38    28    24   ar
    39    34    30    1
