@<TRIPOS>MOLECULE
*****
 23 24 0 0 0
SMALL
GASTEIGER

@<TRIPOS>ATOM
      1 C          65.9832   92.3336   12.9628 C.cat   1  UNL1        0.4181
      2 N          64.5746   91.8375   13.1036 N.2     1  UNL1        0.0599
      3 N          66.2821   93.4978   12.0653 N.pl3   1  UNL1       -0.0877
      4 C          66.8247   93.4181   10.6691 C.3     1  UNL1        0.2015
      5 C          66.9688   94.8171   10.1473 C.3     1  UNL1        0.0761
      6 C          67.4745   94.1356    8.9106 C.3     1  UNL1        0.0094
      7 C          67.2187   96.0736    9.3670 C.3     1  UNL1        0.0094
      8 C          66.5153   95.7613   11.2211 C.2     1  UNL1        0.1100
      9 N          66.0909   94.9459   12.4064 N.2     1  UNL1       -0.1191
     10 S          64.2757   90.6734   14.0011 S.O2    1  UNL1        0.1557
     11 O          64.5857   91.5186   15.2008 O.2     1  UNL1       -0.1324
     12 O          63.9657   89.8281   12.8013 O.2     1  UNL1       -0.1324
     13 C          63.9767   89.5092   14.8985 C.ar    1  UNL1        0.1446
     14 C          63.2629   89.7288   16.1993 C.ar    1  UNL1        0.0218
     15 C          62.9639   88.5646   17.0966 C.ar    1  UNL1        0.0023
     16 C          63.3789   87.1808   16.6932 C.ar    1  UNL1        0.0115
     17 C          64.0928   86.9611   15.3924 C.ar    1  UNL1        0.0591
     18 CL         64.5078   85.5773   14.9889 Cl      1  UNL1       -0.0822
     19 C          64.3917   88.1253   14.4950 C.ar    1  UNL1        0.0332
     20 N          67.0928   91.6656   13.7193 N.pl3   1  UNL1       -0.2217
     21 H          67.2098   90.6897   13.6620 H       1  UNL1        0.2454
     22 C          68.0384   92.3072   16.0526 C.3     1  UNL1        0.0436
     23 C          68.0243   92.4843   14.5631 C.3     1  UNL1        0.1638
@<TRIPOS>BOND
     1    22    23    1
     2    23    20    1
     3    20     1    1
     4     1     2    2
     5     2    10    1
     6    10    11    2
     7    10    12    2
     8    10    13    1
     9    13    14   ar
    10    14    15   ar
    11    15    16   ar
    12    16    17   ar
    13    17    18    1
    14    17    19   ar
    15     1     3    1
    16     3     4    1
    17     4     5    1
    18     5     6    1
    19     5     7    1
    20     5     8    1
    21     8     9    2
    22    19    13   ar
    23     9     3    1
    24    20    21    1
@<TRIPOS>MOLECULE
*****
 23 24 0 0 0
SMALL
GASTEIGER

@<TRIPOS>ATOM
      1 C          63.7143   89.8107   13.2482 C.cat   1  UNL1        0.4181
      2 N          62.9206   90.4133   12.1270 N.2     1  UNL1        0.0599
      3 N          64.4626   90.6978   14.1986 N.pl3   1  UNL1       -0.0877
      4 C          65.9054   91.0923   14.0858 C.3     1  UNL1        0.2015
      5 C          66.2340   91.9845   15.2461 C.3     1  UNL1        0.0761
      6 C          67.6021   92.0154   14.6320 C.3     1  UNL1        0.0094
      7 C          66.8486   92.8830   16.2780 C.3     1  UNL1        0.0094
      8 C          64.9942   92.1413   16.0759 C.2     1  UNL1        0.1100
      9 N          63.8995   91.3461   15.4285 N.2     1  UNL1       -0.1191
     10 S          62.1724   89.5263   11.1766 S.O2    1  UNL1        0.1557
     11 O          63.1103   89.9172   10.0733 O.2     1  UNL1       -0.1324
     12 O          61.2344   89.1354   12.2799 O.2     1  UNL1       -0.1324
     13 C          61.4240   88.6392   10.2262 C.ar    1  UNL1        0.1446
     14 C          61.4803   87.1491   10.3889 C.ar    1  UNL1        0.0218
     15 C          60.7320   86.2622    9.4385 C.ar    1  UNL1        0.0023
     16 C          59.9274   86.8653    8.3255 C.ar    1  UNL1        0.0115
     17 C          59.8710   88.3553    8.1628 C.ar    1  UNL1        0.0591
     18 CL         59.0664   88.9584    7.0498 Cl      1  UNL1       -0.0822
     19 C          60.6194   89.2423    9.1132 C.ar    1  UNL1        0.0332
     20 N          63.7597   88.3212   13.4190 N.pl3   1  UNL1       -0.2217
     21 H          63.3844   87.7343   12.7233 H       1  UNL1        0.2454
     22 C          64.4393   86.2359   14.8118 C.3     1  UNL1        0.0436
     23 C          64.3768   87.7259   14.6498 C.3     1  UNL1        0.1638
@<TRIPOS>BOND
     1    22    23    1
     2    23    20    1
     3    20     1    1
     4     1     2    2
     5     2    10    1
     6    10    11    2
     7    10    12    2
     8    10    13    1
     9    13    14   ar
    10    14    15   ar
    11    15    16   ar
    12    16    17   ar
    13    17    18    1
    14    17    19   ar
    15     1     3    1
    16     3     4    1
    17     4     5    1
    18     5     6    1
    19     5     7    1
    20     5     8    1
    21     8     9    2
    22    19    13   ar
    23     9     3    1
    24    20    21    1
@<TRIPOS>MOLECULE
*****
 23 24 0 0 0
SMALL
GASTEIGER

@<TRIPOS>ATOM
      1 C          62.6414   89.8020   12.4896 C.cat   1  UNL1        0.4181
      2 N          63.0224   88.4512   11.9604 N.2     1  UNL1        0.0599
      3 N          63.4282   90.4186   13.6081 N.pl3   1  UNL1       -0.0877
      4 C          64.6979   91.2042   13.4641 C.3     1  UNL1        0.2015
      5 C          65.1380   91.6290   14.8338 C.3     1  UNL1        0.0761
      6 C          66.2775   92.2687   14.0976 C.3     1  UNL1        0.0094
      7 C          65.8162   92.1875   16.0496 C.3     1  UNL1        0.0094
      8 C          64.1401   91.1059   15.8242 C.2     1  UNL1        0.1100
      9 N          63.0835   90.3579   15.0666 N.2     1  UNL1       -0.1191
     10 S          62.2357   87.8346   10.8420 S.O2    1  UNL1        0.1557
     11 O          62.6646   88.9443    9.9285 O.2     1  UNL1       -0.1324
     12 O          61.8068   86.7249   11.7555 O.2     1  UNL1       -0.1324
     13 C          61.4489   87.2180    9.7236 C.ar    1  UNL1        0.1446
     14 C          59.9985   87.5587    9.5502 C.ar    1  UNL1        0.0218
     15 C          59.2117   86.9420    8.4319 C.ar    1  UNL1        0.0023
     16 C          59.8754   85.9847    7.4869 C.ar    1  UNL1        0.0115
     17 C          61.3259   85.6439    7.6603 C.ar    1  UNL1        0.0591
     18 CL         61.9896   84.6865    6.7154 Cl      1  UNL1       -0.0822
     19 C          62.1126   86.2606    8.7787 C.ar    1  UNL1        0.0332
     20 N          61.4736   90.5363   11.9005 N.pl3   1  UNL1       -0.2217
     21 H          61.6236   91.3379   11.3491 H       1  UNL1        0.2454
     22 C          58.9082   90.7980   11.5836 C.3     1  UNL1        0.0436
     23 C          60.0773   90.0491   12.1515 C.3     1  UNL1        0.1638
@<TRIPOS>BOND
     1    22    23    1
     2    23    20    1
     3    20     1    1
     4     1     2    2
     5     2    10    1
     6    10    11    2
     7    10    12    2
     8    10    13    1
     9    13    14   ar
    10    14    15   ar
    11    15    16   ar
    12    16    17   ar
    13    17    18    1
    14    17    19   ar
    15     1     3    1
    16     3     4    1
    17     4     5    1
    18     5     6    1
    19     5     7    1
    20     5     8    1
    21     8     9    2
    22    19    13   ar
    23     9     3    1
    24    20    21    1
@<TRIPOS>MOLECULE
*****
 23 24 0 0 0
SMALL
GASTEIGER

@<TRIPOS>ATOM
      1 C          64.3275   91.2643   13.5413 C.cat   1  UNL1        0.4181
      2 N          65.6466   91.9729   13.6297 N.2     1  UNL1        0.0599
      3 N          63.9791   90.2009   14.5402 N.pl3   1  UNL1       -0.0877
      4 C          64.3021   88.7408   14.4224 C.3     1  UNL1        0.2015
      5 C          63.7691   88.0483   15.6416 C.3     1  UNL1        0.0761
      6 C          64.3348   86.8177   14.9970 C.3     1  UNL1        0.0094
      7 C          63.3544   87.0986   16.7261 C.3     1  UNL1        0.0094
      8 C          63.1167   89.0805   16.5130 C.2     1  UNL1        0.1100
      9 N          63.2465   90.4108   15.8322 N.2     1  UNL1       -0.1191
     10 S          65.9951   93.0363   12.6308 S.O2    1  UNL1        0.1557
     11 O          66.0296   94.0570   13.7295 O.2     1  UNL1       -0.1324
     12 O          65.9605   92.0157   11.5322 O.2     1  UNL1       -0.1324
     13 C          66.3436   94.0998   11.6319 C.ar    1  UNL1        0.1446
     14 C          66.1781   95.5472   11.9889 C.ar    1  UNL1        0.0218
     15 C          66.5265   96.6106   10.9900 C.ar    1  UNL1        0.0023
     16 C          67.0405   96.2265    9.6341 C.ar    1  UNL1        0.0115
     17 C          67.2060   94.7790    9.2772 C.ar    1  UNL1        0.0591
     18 CL         67.7200   94.3949    7.9214 Cl      1  UNL1       -0.0822
     19 C          66.8575   93.7157   10.2761 C.ar    1  UNL1        0.0332
     20 N          63.3568   91.6191   12.4542 N.pl3   1  UNL1       -0.2217
     21 H          63.1424   92.5631   12.2746 H       1  UNL1        0.2454
     22 C          62.7359   90.6086   10.1426 C.3     1  UNL1        0.0436
     23 C          62.7129   90.5358   11.6407 C.3     1  UNL1        0.1638
@<TRIPOS>BOND
     1    22    23    1
     2    23    20    1
     3    20     1    1
     4     1     2    2
     5     2    10    1
     6    10    11    2
     7    10    12    2
     8    10    13    1
     9    13    14   ar
    10    14    15   ar
    11    15    16   ar
    12    16    17   ar
    13    17    18    1
    14    17    19   ar
    15     1     3    1
    16     3     4    1
    17     4     5    1
    18     5     6    1
    19     5     7    1
    20     5     8    1
    21     8     9    2
    22    19    13   ar
    23     9     3    1
    24    20    21    1
@<TRIPOS>MOLECULE
*****
 23 24 0 0 0
SMALL
GASTEIGER

@<TRIPOS>ATOM
      1 C          62.4651   86.8377   11.8861 C.cat   1  UNL1        0.4181
      2 N          63.3760   85.9295   12.6578 N.2     1  UNL1        0.0599
      3 N          62.7997   88.2932   11.7463 N.pl3   1  UNL1       -0.0877
      4 C          63.5279   89.1313   12.7550 C.3     1  UNL1        0.2015
      5 C          63.6431   90.5223   12.2054 C.3     1  UNL1        0.0761
      6 C          64.3552   90.8037   13.4951 C.3     1  UNL1        0.0094
      7 C          63.9071   91.9721   11.9254 C.3     1  UNL1        0.0094
      8 C          62.9860   90.5438   10.8570 C.2     1  UNL1        0.1100
      9 N          62.4648   89.1662   10.5733 N.2     1  UNL1       -0.1191
     10 S          63.0415   84.4740   12.7977 S.O2    1  UNL1        0.1557
     11 O          63.8138   84.1763   11.5468 O.2     1  UNL1       -0.1324
     12 O          62.2691   84.7717   14.0486 O.2     1  UNL1       -0.1324
     13 C          62.7069   83.0185   12.9376 C.ar    1  UNL1        0.1446
     14 C          62.1015   82.5071   14.2111 C.ar    1  UNL1        0.0218
     15 C          61.7670   81.0516   14.3509 C.ar    1  UNL1        0.0023
     16 C          62.0378   80.1075   13.2172 C.ar    1  UNL1        0.0115
     17 C          62.6432   80.6189   11.9437 C.ar    1  UNL1        0.0591
     18 CL         62.9141   79.6748   10.8100 Cl      1  UNL1       -0.0822
     19 C          62.9777   82.0744   11.8038 C.ar    1  UNL1        0.0332
     20 N          61.2197   86.2903   11.2543 N.pl3   1  UNL1       -0.2217
     21 H          60.4323   86.0906   11.8106 H       1  UNL1        0.2454
     22 C          62.4460   86.0115    8.9808 C.3     1  UNL1        0.0436
     23 C          61.1738   86.0473    9.7748 C.3     1  UNL1        0.1638
@<TRIPOS>BOND
     1    22    23    1
     2    23    20    1
     3    20     1    1
     4     1     2    2
     5     2    10    1
     6    10    11    2
     7    10    12    2
     8    10    13    1
     9    13    14   ar
    10    14    15   ar
    11    15    16   ar
    12    16    17   ar
    13    17    18    1
    14    17    19   ar
    15     1     3    1
    16     3     4    1
    17     4     5    1
    18     5     6    1
    19     5     7    1
    20     5     8    1
    21     8     9    2
    22    19    13   ar
    23     9     3    1
    24    20    21    1
@<TRIPOS>MOLECULE
*****
 23 24 0 0 0
SMALL
GASTEIGER

@<TRIPOS>ATOM
      1 C          63.7421   90.5276   12.4760 C.cat   1  UNL1        0.4181
      2 N          62.7377   89.4305   12.6698 N.2     1  UNL1        0.0599
      3 N          64.4525   91.1119   13.6609 N.pl3   1  UNL1       -0.0877
      4 C          65.9186   91.4170   13.7476 C.3     1  UNL1        0.2015
      5 C          66.1938   91.9874   15.1074 C.3     1  UNL1        0.0761
      6 C          67.6092   92.0625   14.6165 C.3     1  UNL1        0.0094
      7 C          66.7648   92.5735   16.3645 C.3     1  UNL1        0.0094
      8 C          64.8977   92.0349   15.8611 C.2     1  UNL1        0.1100
      9 N          63.8216   91.4938   14.9671 N.2     1  UNL1       -0.1191
     10 S          62.0273   88.8461   11.4850 S.O2    1  UNL1        0.1557
     11 O          62.6969   87.5272   11.7341 O.2     1  UNL1       -0.1324
     12 O          61.3577   90.1650   11.2360 O.2     1  UNL1       -0.1324
     13 C          61.3169   88.2618   10.3002 C.ar    1  UNL1        0.1446
     14 C          61.2345   86.7733   10.1341 C.ar    1  UNL1        0.0218
     15 C          60.5241   86.1890    8.9493 C.ar    1  UNL1        0.0023
     16 C          59.8960   87.0932    7.9305 C.ar    1  UNL1        0.0115
     17 C          59.9784   88.5817    8.0965 C.ar    1  UNL1        0.0591
     18 CL         59.3503   89.4859    7.0777 Cl      1  UNL1       -0.0822
     19 C          60.6888   89.1660    9.2813 C.ar    1  UNL1        0.0332
     20 N          64.0362   91.0403   11.0974 N.pl3   1  UNL1       -0.2217
     21 H          63.9403   90.4443   10.3197 H       1  UNL1        0.2454
     22 C          65.8745   92.7578   10.4488 C.3     1  UNL1        0.0436
     23 C          64.4763   92.4611   10.9037 C.3     1  UNL1        0.1638
@<TRIPOS>BOND
     1    22    23    1
     2    23    20    1
     3    20     1    1
     4     1     2    2
     5     2    10    1
     6    10    11    2
     7    10    12    2
     8    10    13    1
     9    13    14   ar
    10    14    15   ar
    11    15    16   ar
    12    16    17   ar
    13    17    18    1
    14    17    19   ar
    15     1     3    1
    16     3     4    1
    17     4     5    1
    18     5     6    1
    19     5     7    1
    20     5     8    1
    21     8     9    2
    22    19    13   ar
    23     9     3    1
    24    20    21    1
@<TRIPOS>MOLECULE
*****
 23 24 0 0 0
SMALL
GASTEIGER

@<TRIPOS>ATOM
      1 C          63.8400   87.7323   14.2858 C.cat   1  UNL1        0.4181
      2 N          64.0228   86.5003   15.1218 N.2     1  UNL1        0.0599
      3 N          64.1022   89.0857   14.8771 N.pl3   1  UNL1       -0.0877
      4 C          65.2223   90.0099   14.5014 C.3     1  UNL1        0.2015
      5 C          65.1027   91.2479   15.3400 C.3     1  UNL1        0.0761
      6 C          66.3250   91.6850   14.5885 C.3     1  UNL1        0.0094
      7 C          65.2387   92.5772   16.0215 C.3     1  UNL1        0.0094
      8 C          63.9087   91.0887   16.2340 C.2     1  UNL1        0.1100
      9 N          63.2904   89.7523   15.9479 N.2     1  UNL1       -0.1191
     10 S          63.7606   85.1470   14.5306 S.O2    1  UNL1        0.1557
     11 O          65.1734   85.0921   14.0297 O.2     1  UNL1       -0.1324
     12 O          62.3478   85.2019   15.0314 O.2     1  UNL1       -0.1324
     13 C          63.4984   83.7935   13.9393 C.ar    1  UNL1        0.1446
     14 C          64.4288   83.2342   12.9043 C.ar    1  UNL1        0.0218
     15 C          64.1665   81.8808   12.3131 C.ar    1  UNL1        0.0023
     16 C          62.9739   81.0868   12.7569 C.ar    1  UNL1        0.0115
     17 C          62.0434   81.6461   13.7920 C.ar    1  UNL1        0.0591
     18 CL         60.8507   80.8521   14.2359 Cl      1  UNL1       -0.0822
     19 C          62.3057   82.9995   14.3832 C.ar    1  UNL1        0.0332
     20 N          63.3950   87.6108   12.8585 N.pl3   1  UNL1       -0.2217
     21 H          63.3675   86.7274   12.4250 H       1  UNL1        0.2454
     22 C          62.3619   88.6987   10.7373 C.3     1  UNL1        0.0436
     23 C          62.9919   88.8354   12.0918 C.3     1  UNL1        0.1638
@<TRIPOS>BOND
     1    22    23    1
     2    23    20    1
     3    20     1    1
     4     1     2    2
     5     2    10    1
     6    10    11    2
     7    10    12    2
     8    10    13    1
     9    13    14   ar
    10    14    15   ar
    11    15    16   ar
    12    16    17   ar
    13    17    18    1
    14    17    19   ar
    15     1     3    1
    16     3     4    1
    17     4     5    1
    18     5     6    1
    19     5     7    1
    20     5     8    1
    21     8     9    2
    22    19    13   ar
    23     9     3    1
    24    20    21    1
@<TRIPOS>MOLECULE
*****
 23 24 0 0 0
SMALL
GASTEIGER

@<TRIPOS>ATOM
      1 C          61.7550   89.1237   11.4392 C.cat   1  UNL1        0.4181
      2 N          63.0967   88.8113   12.0328 N.2     1  UNL1        0.0599
      3 N          61.1713   88.2244   10.3901 N.pl3   1  UNL1       -0.0877
      4 C          60.4059   88.6652    9.1777 C.3     1  UNL1        0.2015
      5 C          60.0120   87.4397    8.4074 C.3     1  UNL1        0.0761
      6 C          59.3800   88.4246    7.4691 C.3     1  UNL1        0.0094
      7 C          59.4860   86.4202    7.4410 C.3     1  UNL1        0.0094
      8 C          60.5341   86.2417    9.1438 C.2     1  UNL1        0.1100
      9 N          61.2505   86.7267   10.3692 N.2     1  UNL1       -0.1191
     10 S          63.6805   89.7105   13.0818 S.O2    1  UNL1        0.1557
     11 O          63.5999   88.5958   14.0822 O.2     1  UNL1       -0.1324
     12 O          63.7611   90.8253   12.0815 O.2     1  UNL1       -0.1324
     13 C          64.2643   90.6098   14.1310 C.ar    1  UNL1        0.1446
     14 C          63.6451   90.6706   15.4958 C.ar    1  UNL1        0.0218
     15 C          64.2289   91.5698   16.5448 C.ar    1  UNL1        0.0023
     16 C          65.4318   92.4083   16.2290 C.ar    1  UNL1        0.0115
     17 C          66.0510   92.3476   14.8642 C.ar    1  UNL1        0.0591
     18 CL         67.2540   93.1861   14.5483 Cl      1  UNL1       -0.0822
     19 C          65.4673   91.4483   13.8151 C.ar    1  UNL1        0.0332
     20 N          60.9971   90.3353   11.8948 N.pl3   1  UNL1       -0.2217
     21 H          61.4841   91.1354   12.1979 H       1  UNL1        0.2454
     22 C          58.7497   89.2189   12.5679 C.3     1  UNL1        0.0436
     23 C          59.4971   90.3278   11.8884 C.3     1  UNL1        0.1638
@<TRIPOS>BOND
     1    22    23    1
     2    23    20    1
     3    20     1    1
     4     1     2    2
     5     2    10    1
     6    10    11    2
     7    10    12    2
     8    10    13    1
     9    13    14   ar
    10    14    15   ar
    11    15    16   ar
    12    16    17   ar
    13    17    18    1
    14    17    19   ar
    15     1     3    1
    16     3     4    1
    17     4     5    1
    18     5     6    1
    19     5     7    1
    20     5     8    1
    21     8     9    2
    22    19    13   ar
    23     9     3    1
    24    20    21    1
@<TRIPOS>MOLECULE
*****
 23 24 0 0 0
SMALL
GASTEIGER

@<TRIPOS>ATOM
      1 C          64.7889   91.2642   12.8512 C.cat   1  UNL1        0.4181
      2 N          63.8028   90.1795   13.1690 N.2     1  UNL1        0.0599
      3 N          65.6950   91.7919   13.9240 N.pl3   1  UNL1       -0.0877
      4 C          67.1933   91.8374   13.8688 C.3     1  UNL1        0.2015
      5 C          67.6861   92.4403   15.1509 C.3     1  UNL1        0.0761
      6 C          69.0420   92.2301   14.5450 C.3     1  UNL1        0.0094
      7 C          68.4624   92.9993   16.3063 C.3     1  UNL1        0.0094
      8 C          66.4924   92.7674   15.9983 C.2     1  UNL1        0.1100
      9 N          65.2618   92.3666   15.2400 N.2     1  UNL1       -0.1191
     10 S          62.8967   89.6518   12.0964 S.O2    1  UNL1        0.1557
     11 O          63.3754   88.2583   12.3776 O.2     1  UNL1       -0.1324
     12 O          62.4180   91.0452   11.8152 O.2     1  UNL1       -0.1324
     13 C          61.9906   89.1241   11.0237 C.ar    1  UNL1        0.1446
     14 C          60.9543   90.0184   10.4104 C.ar    1  UNL1        0.0218
     15 C          60.0483   89.4907    9.3377 C.ar    1  UNL1        0.0023
     16 C          60.1786   88.0687    8.8784 C.ar    1  UNL1        0.0115
     17 C          61.2149   87.1744    9.4917 C.ar    1  UNL1        0.0591
     18 CL         61.3453   85.7524    9.0324 Cl      1  UNL1       -0.0822
     19 C          62.1210   87.7021   10.5644 C.ar    1  UNL1        0.0332
     20 N          64.8690   91.8211   11.4608 N.pl3   1  UNL1       -0.2217
     21 H          64.5714   91.2784   10.6953 H       1  UNL1        0.2454
     22 C          66.6718   93.4031   10.4622 C.3     1  UNL1        0.0436
     23 C          65.4027   93.2050   11.2368 C.3     1  UNL1        0.1638
@<TRIPOS>BOND
     1    22    23    1
     2    23    20    1
     3    20     1    1
     4     1     2    2
     5     2    10    1
     6    10    11    2
     7    10    12    2
     8    10    13    1
     9    13    14   ar
    10    14    15   ar
    11    15    16   ar
    12    16    17   ar
    13    17    18    1
    14    17    19   ar
    15     1     3    1
    16     3     4    1
    17     4     5    1
    18     5     6    1
    19     5     7    1
    20     5     8    1
    21     8     9    2
    22    19    13   ar
    23     9     3    1
    24    20    21    1
