@<TRIPOS>MOLECULE
*****
 42 45 0 0 0
SMALL
GASTEIGER

@<TRIPOS>ATOM
      1 C          63.3413   84.6322   12.2042 C.3     1  UNL1        0.1139
      2 C          62.5711   85.4855   11.2405 C.ar    1  UNL1       -0.0029
      3 C          63.0004   85.5712    9.8058 C.ar    1  UNL1       -0.0026
      4 C          62.2301   86.4245    8.8422 C.ar    1  UNL1       -0.0003
      5 C          61.0305   87.1919    9.3132 C.ar    1  UNL1       -0.0000
      6 C          60.6011   87.1062   10.7479 C.ar    1  UNL1       -0.0003
      7 C          61.3714   86.2530   11.7115 C.ar    1  UNL1       -0.0026
      8 C          60.2602   88.0452    8.3495 C.ar    1  UNL1        0.0000
      9 C          60.6165   89.4922    8.1785 C.ar    1  UNL1        0.0001
     10 C          59.8462   90.3454    7.2148 C.ar    1  UNL1        0.0045
     11 C          58.7196   89.7516    6.4221 C.ar    1  UNL1        0.0531
     12 C          58.3634   88.3046    6.5932 C.ar    1  UNL1        0.0045
     13 C          59.1337   87.4514    7.5569 C.ar    1  UNL1        0.0001
     14 C          57.9493   90.6048    5.4585 C.2     1  UNL1        0.2427
     15 N          56.4576   90.4756    5.3692 N.am    1  UNL1       -0.3253
     16 O          58.6708   91.5871    4.5841 O.2     1  UNL1       -0.2704
     17 H          55.9841   89.8309    5.9430 H       1  UNL1        0.1453
     18 H          55.9520   91.0356    4.7367 H       1  UNL1        0.1453
     19 C          63.9205   86.7259   13.6294 C.2     1  UNL1        0.2461
     20 O          63.3772   87.6123   12.5481 O.2     1  UNL1       -0.2730
     21 N          63.9026   85.2359   13.4574 N.am    1  UNL1       -0.2729
     22 C          64.4459   84.3496   14.5387 C.3     1  UNL1        0.1152
     23 C          64.4817   87.3296   14.8826 C.3     1  UNL1        0.1773
     24 N          64.0951   88.7227   15.2824 N.pl3   1  UNL1       -0.2973
     25 C          64.5960   89.8957   14.4930 C.ar    1  UNL1        0.0492
     26 C          63.7697   90.4533   13.3721 C.ar    1  UNL1        0.0154
     27 C          64.2705   91.6263   12.5827 C.ar    1  UNL1        0.0135
     28 C          65.5977   92.2417   12.9141 C.ar    1  UNL1        0.0683
     29 CL         66.0985   93.4148   12.1247 Cl      1  UNL1       -0.0814
     30 C          66.4240   91.6842   14.0350 C.ar    1  UNL1        0.0694
     31 CL         67.7512   92.2996   14.3664 Cl      1  UNL1       -0.0813
     32 C          65.9232   90.5111   14.8244 C.ar    1  UNL1        0.0268
     33 C          63.2077   88.9428   16.4715 C.3     1  UNL1        0.1234
     34 C          62.9735   87.8293   17.4489 C.3     1  UNL1        0.1636
     35 C          62.1358   85.4406   16.8635 C.3     1  UNL1        0.1742
     36 O          61.8449   86.8655   17.2314 O.3     1  UNL1       -0.3493
     37 C          63.5504   83.1754   11.9146 C.3     1  UNL1        0.0967
     38 N          62.7846   82.1403   12.6843 N.3     1  UNL1       -0.2710
     39 C          62.8688   80.6554   12.4892 C.3     1  UNL1        0.0722
     40 C          61.9365   80.0057   13.4685 C.3     1  UNL1        0.0188
     41 C          61.2762   81.0892   14.2687 C.3     1  UNL1        0.0188
     42 C          61.8004   82.4084   13.7840 C.3     1  UNL1        0.0722
@<TRIPOS>BOND
     1    35    36    1
     2    36    34    1
     3    34    33    1
     4    33    24    1
     5    24    23    1
     6    23    19    1
     7    19    20    2
     8    19    21   am
     9    21    22    1
    10    21     1    1
    11     1    37    1
    12    37    38    1
    13    38    39    1
    14    39    40    1
    15    40    41    1
    16    41    42    1
    17     1     2    1
    18     2     3   ar
    19     3     4   ar
    20     4     5   ar
    21     5     8    1
    22     8     9   ar
    23     9    10   ar
    24    10    11   ar
    25    11    14    1
    26    14    15   am
    27    14    16    2
    28    11    12   ar
    29    12    13   ar
    30     5     6   ar
    31     6     7   ar
    32    24    25    1
    33    25    26   ar
    34    26    27   ar
    35    27    28   ar
    36    28    29    1
    37    28    30   ar
    38    30    31    1
    39    30    32   ar
    40    42    38    1
    41     7     2   ar
    42    32    25   ar
    43    13     8   ar
    44    15    17    1
    45    15    18    1
@<TRIPOS>MOLECULE
*****
 42 45 0 0 0
SMALL
GASTEIGER

@<TRIPOS>ATOM
      1 C          61.8902   88.7680   10.4991 C.3     1  UNL1        0.1139
      2 C          62.9018   89.5331   11.3000 C.ar    1  UNL1       -0.0029
      3 C          63.4867   90.8018   10.7541 C.ar    1  UNL1       -0.0026
      4 C          64.4983   91.5668   11.5550 C.ar    1  UNL1       -0.0003
      5 C          64.9249   91.0630   12.9019 C.ar    1  UNL1       -0.0000
      6 C          64.3400   89.7943   13.4479 C.ar    1  UNL1       -0.0003
      7 C          63.3285   89.0293   12.6470 C.ar    1  UNL1       -0.0026
      8 C          65.9365   91.8281   13.7029 C.ar    1  UNL1        0.0000
      9 C          66.0923   93.3059   13.4991 C.ar    1  UNL1        0.0001
     10 C          67.1039   94.0710   14.3000 C.ar    1  UNL1        0.0045
     11 C          67.9596   93.3581   15.3048 C.ar    1  UNL1        0.0531
     12 C          67.8038   91.8801   15.5086 C.ar    1  UNL1        0.0045
     13 C          66.7922   91.1152   14.7076 C.ar    1  UNL1        0.0001
     14 C          68.9712   94.1231   16.1057 C.2     1  UNL1        0.2427
     15 N          70.2236   93.4448   16.5763 N.am    1  UNL1       -0.3253
     16 O          68.7304   95.5663   16.4361 O.2     1  UNL1       -0.2704
     17 H          70.3816   92.4976   16.3595 H       1  UNL1        0.1453
     18 H          70.8875   93.9469   17.1020 H       1  UNL1        0.1453
     19 C          61.5802   86.2589   11.0978 C.2     1  UNL1        0.2461
     20 O          60.8070   86.6468   12.3232 O.2     1  UNL1       -0.2730
     21 N          62.1218   87.3195   10.1857 N.am    1  UNL1       -0.2729
     22 C          62.8949   86.9316    8.9602 C.3     1  UNL1        0.1152
     23 C          61.8117   84.8104   10.7843 C.3     1  UNL1        0.1773
     24 N          62.5601   83.9437   11.7532 N.pl3   1  UNL1       -0.2973
     25 C          62.7882   84.4143   13.1590 C.ar    1  UNL1        0.0492
     26 C          61.9464   83.8739   14.2768 C.ar    1  UNL1        0.0154
     27 C          62.1745   84.3445   15.6826 C.ar    1  UNL1        0.0135
     28 C          63.2444   85.3556   15.9708 C.ar    1  UNL1        0.0683
     29 CL         63.4725   85.8262   17.3767 Cl      1  UNL1       -0.0814
     30 C          64.0862   85.8960   14.8531 C.ar    1  UNL1        0.0694
     31 CL         65.1561   86.9071   15.1413 Cl      1  UNL1       -0.0813
     32 C          63.8581   85.4254   13.4472 C.ar    1  UNL1        0.0268
     33 C          63.0804   82.6064   11.3162 C.3     1  UNL1        0.1234
     34 C          64.1497   81.9206   12.1138 C.3     1  UNL1        0.1636
     35 C          62.4690   80.3015   13.2557 C.3     1  UNL1        0.1742
     36 O          63.7753   81.0388   13.2680 O.3     1  UNL1       -0.3493
     37 C          60.6472   89.4514   10.0116 C.3     1  UNL1        0.0967
     38 N          59.9613   88.9643    8.7697 N.3     1  UNL1       -0.2710
     39 C          59.3063   87.6267    8.5913 C.3     1  UNL1        0.0722
     40 C          58.7502   87.5649    7.1994 C.3     1  UNL1        0.0188
     41 C          59.0617   88.8643    6.5177 C.3     1  UNL1        0.0188
     42 C          59.8102   89.7291    7.4882 C.3     1  UNL1        0.0722
@<TRIPOS>BOND
     1    35    36    1
     2    36    34    1
     3    34    33    1
     4    33    24    1
     5    24    23    1
     6    23    19    1
     7    19    20    2
     8    19    21   am
     9    21    22    1
    10    21     1    1
    11     1    37    1
    12    37    38    1
    13    38    39    1
    14    39    40    1
    15    40    41    1
    16    41    42    1
    17     1     2    1
    18     2     3   ar
    19     3     4   ar
    20     4     5   ar
    21     5     8    1
    22     8     9   ar
    23     9    10   ar
    24    10    11   ar
    25    11    14    1
    26    14    15   am
    27    14    16    2
    28    11    12   ar
    29    12    13   ar
    30     5     6   ar
    31     6     7   ar
    32    24    25    1
    33    25    26   ar
    34    26    27   ar
    35    27    28   ar
    36    28    29    1
    37    28    30   ar
    38    30    31    1
    39    30    32   ar
    40    42    38    1
    41     7     2   ar
    42    32    25   ar
    43    13     8   ar
    44    15    17    1
    45    15    18    1
@<TRIPOS>MOLECULE
*****
 42 45 0 0 0
SMALL
GASTEIGER

@<TRIPOS>ATOM
      1 C          63.3138   89.8151   12.8114 C.3     1  UNL1        0.1139
      2 C          63.2249   88.3189   12.7505 C.ar    1  UNL1       -0.0029
      3 C          62.4854   87.6567   11.6260 C.ar    1  UNL1       -0.0026
      4 C          62.3965   86.1606   11.5651 C.ar    1  UNL1       -0.0003
      5 C          63.0472   85.3267   12.6288 C.ar    1  UNL1       -0.0000
      6 C          63.7867   85.9889   13.7533 C.ar    1  UNL1       -0.0003
      7 C          63.8755   87.4850   13.8141 C.ar    1  UNL1       -0.0026
      8 C          62.9583   83.8305   12.5678 C.ar    1  UNL1        0.0000
      9 C          63.2642   83.1125   11.2869 C.ar    1  UNL1        0.0001
     10 C          63.1754   81.6164   11.2260 C.ar    1  UNL1        0.0045
     11 C          62.7805   80.8382   12.4461 C.ar    1  UNL1        0.0531
     12 C          62.4745   81.5563   13.7271 C.ar    1  UNL1        0.0045
     13 C          62.5634   83.0524   13.7879 C.ar    1  UNL1        0.0001
     14 C          62.6916   79.3421   12.3852 C.2     1  UNL1        0.2427
     15 N          62.7490   78.6407   11.0606 N.am    1  UNL1       -0.3253
     16 O          62.5453   78.5475   13.6490 O.2     1  UNL1       -0.2704
     17 H          62.8450   79.1623   10.2312 H       1  UNL1        0.1453
     18 H          62.6907   77.6588   11.0206 H       1  UNL1        0.1453
     19 C          65.3184   91.3980   12.3362 C.2     1  UNL1        0.2461
     20 O          64.7818   91.6648   10.9611 O.2     1  UNL1       -0.2730
     21 N          64.5843   90.4732   13.2614 N.am    1  UNL1       -0.2729
     22 C          65.1209   90.2065   14.6364 C.3     1  UNL1        0.1152
     23 C          66.5890   92.0562   12.7861 C.3     1  UNL1        0.1773
     24 N          66.6681   93.5513   12.8761 N.pl3   1  UNL1       -0.2973
     25 C          66.7108   94.3767   11.6244 C.ar    1  UNL1        0.0492
     26 C          66.1134   95.7526   11.6124 C.ar    1  UNL1        0.0154
     27 C          66.1561   96.5780   10.3607 C.ar    1  UNL1        0.0135
     28 C          66.7964   96.0276    9.1209 C.ar    1  UNL1        0.0683
     29 CL         66.8391   96.8531    7.8691 Cl      1  UNL1       -0.0814
     30 C          67.3938   94.6518    9.1328 C.ar    1  UNL1        0.0694
     31 CL         68.0341   94.1014    7.8930 Cl      1  UNL1       -0.0813
     32 C          67.3511   93.8264   10.3846 C.ar    1  UNL1        0.0268
     33 C          66.7044   94.2211   14.2178 C.3     1  UNL1        0.1234
     34 C          66.6611   93.3957   15.4695 C.3     1  UNL1        0.1636
     35 C          69.1840   92.8040   15.2827 C.3     1  UNL1        0.1742
     36 O          67.9374   92.9327   16.1071 O.3     1  UNL1       -0.3493
     37 C          62.1321   90.6530   12.4224 C.3     1  UNL1        0.0967
     38 N          61.3296   90.2990   11.2054 N.3     1  UNL1       -0.2710
     39 C          61.8704   90.0973    9.8209 C.3     1  UNL1        0.0722
     40 C          60.7205   89.7582    8.9191 C.3     1  UNL1        0.0188
     41 C          59.4693   89.7505    9.7464 C.3     1  UNL1        0.0188
     42 C          59.8458   90.0847   11.1594 C.3     1  UNL1        0.0722
@<TRIPOS>BOND
     1    35    36    1
     2    36    34    1
     3    34    33    1
     4    33    24    1
     5    24    23    1
     6    23    19    1
     7    19    20    2
     8    19    21   am
     9    21    22    1
    10    21     1    1
    11     1    37    1
    12    37    38    1
    13    38    39    1
    14    39    40    1
    15    40    41    1
    16    41    42    1
    17     1     2    1
    18     2     3   ar
    19     3     4   ar
    20     4     5   ar
    21     5     8    1
    22     8     9   ar
    23     9    10   ar
    24    10    11   ar
    25    11    14    1
    26    14    15   am
    27    14    16    2
    28    11    12   ar
    29    12    13   ar
    30     5     6   ar
    31     6     7   ar
    32    24    25    1
    33    25    26   ar
    34    26    27   ar
    35    27    28   ar
    36    28    29    1
    37    28    30   ar
    38    30    31    1
    39    30    32   ar
    40    42    38    1
    41     7     2   ar
    42    32    25   ar
    43    13     8   ar
    44    15    17    1
    45    15    18    1
@<TRIPOS>MOLECULE
*****
 42 45 0 0 0
SMALL
GASTEIGER

@<TRIPOS>ATOM
      1 C          62.8740   89.3578   12.4745 C.3     1  UNL1        0.1139
      2 C          62.8710   87.8691   12.2907 C.ar    1  UNL1       -0.0029
      3 C          63.4551   86.9815   13.3494 C.ar    1  UNL1       -0.0026
      4 C          63.4521   85.4929   13.1655 C.ar    1  UNL1       -0.0003
      5 C          62.8649   84.8918   11.9230 C.ar    1  UNL1       -0.0000
      6 C          62.2808   85.7794   10.8643 C.ar    1  UNL1       -0.0003
      7 C          62.2838   87.2680   11.0481 C.ar    1  UNL1       -0.0026
      8 C          62.8619   83.4030   11.7392 C.ar    1  UNL1        0.0000
      9 C          62.3490   82.5134   12.8325 C.ar    1  UNL1        0.0001
     10 C          62.3460   81.0246   12.6487 C.ar    1  UNL1        0.0045
     11 C          62.8560   80.4256   11.3715 C.ar    1  UNL1        0.0531
     12 C          63.3689   81.3154   10.2782 C.ar    1  UNL1        0.0045
     13 C          63.3719   82.8040   10.4620 C.ar    1  UNL1        0.0001
     14 C          62.8530   78.9370   11.1877 C.2     1  UNL1        0.2427
     15 N          62.9872   78.3508    9.8135 N.am    1  UNL1       -0.3253
     16 O          62.7157   78.0345   12.3779 O.2     1  UNL1       -0.2704
     17 H          63.0773   78.9431    9.0323 H       1  UNL1        0.1453
     18 H          62.9853   77.3737    9.6928 H       1  UNL1        0.1453
     19 C          64.6013   91.2565   12.8767 C.2     1  UNL1        0.2461
     20 O          64.2451   91.8613   11.5511 O.2     1  UNL1       -0.2730
     21 N          63.9157   90.0047   13.3384 N.am    1  UNL1       -0.2729
     22 C          64.2719   89.3999   14.6640 C.3     1  UNL1        0.1152
     23 C          65.6430   91.9034   13.7406 C.3     1  UNL1        0.1773
     24 N          66.9506   92.3330   13.1444 N.pl3   1  UNL1       -0.2973
     25 C          66.9702   93.1206   11.8680 C.ar    1  UNL1        0.0492
     26 C          67.5961   92.5369   10.6360 C.ar    1  UNL1        0.0154
     27 C          67.6157   93.3244    9.3596 C.ar    1  UNL1        0.0135
     28 C          67.0093   94.6957    9.3150 C.ar    1  UNL1        0.0683
     29 CL         67.0289   95.4832    8.0385 Cl      1  UNL1       -0.0814
     30 C          66.3834   95.2794   10.5468 C.ar    1  UNL1        0.0694
     31 CL         65.7770   96.6506   10.5022 Cl      1  UNL1       -0.0813
     32 C          66.3638   94.4918   11.8234 C.ar    1  UNL1        0.0268
     33 C          68.2387   91.9750   13.8246 C.3     1  UNL1        0.1234
     34 C          68.3321   92.0123   15.3212 C.3     1  UNL1        0.1636
     35 C          69.0374   94.3964   16.0754 C.3     1  UNL1        0.1742
     36 O          68.0323   93.2829   16.0600 O.3     1  UNL1       -0.3493
     37 C          61.8353   90.1996   11.7944 C.3     1  UNL1        0.0967
     38 N          60.9799   89.6075   10.7137 N.3     1  UNL1       -0.2710
     39 C          59.7630   88.7552   10.9202 C.3     1  UNL1        0.0722
     40 C          59.2222   88.3847    9.5710 C.3     1  UNL1        0.0188
     41 C          60.1050   89.0080    8.5307 C.3     1  UNL1        0.0188
     42 C          61.1913   89.7637    9.2370 C.3     1  UNL1        0.0722
@<TRIPOS>BOND
     1    35    36    1
     2    36    34    1
     3    34    33    1
     4    33    24    1
     5    24    23    1
     6    23    19    1
     7    19    20    2
     8    19    21   am
     9    21    22    1
    10    21     1    1
    11     1    37    1
    12    37    38    1
    13    38    39    1
    14    39    40    1
    15    40    41    1
    16    41    42    1
    17     1     2    1
    18     2     3   ar
    19     3     4   ar
    20     4     5   ar
    21     5     8    1
    22     8     9   ar
    23     9    10   ar
    24    10    11   ar
    25    11    14    1
    26    14    15   am
    27    14    16    2
    28    11    12   ar
    29    12    13   ar
    30     5     6   ar
    31     6     7   ar
    32    24    25    1
    33    25    26   ar
    34    26    27   ar
    35    27    28   ar
    36    28    29    1
    37    28    30   ar
    38    30    31    1
    39    30    32   ar
    40    42    38    1
    41     7     2   ar
    42    32    25   ar
    43    13     8   ar
    44    15    17    1
    45    15    18    1
@<TRIPOS>MOLECULE
*****
 42 45 0 0 0
SMALL
GASTEIGER

@<TRIPOS>ATOM
      1 C          62.1619   89.4994   10.3229 C.3     1  UNL1        0.1139
      2 C          62.2610   88.0166   10.5270 C.ar    1  UNL1       -0.0029
      3 C          62.1058   87.4367   11.9016 C.ar    1  UNL1       -0.0026
      4 C          62.2049   85.9540   12.1057 C.ar    1  UNL1       -0.0003
      5 C          62.4594   85.0512   10.9352 C.ar    1  UNL1       -0.0000
      6 C          62.6146   85.6311    9.5606 C.ar    1  UNL1       -0.0003
      7 C          62.5154   87.1138    9.3565 C.ar    1  UNL1       -0.0026
      8 C          62.5585   83.5684   11.1393 C.ar    1  UNL1        0.0000
      9 C          63.1129   82.6970   10.0515 C.ar    1  UNL1        0.0001
     10 C          63.2120   81.2142   10.2556 C.ar    1  UNL1        0.0045
     11 C          62.7568   80.6029   11.5476 C.ar    1  UNL1        0.0531
     12 C          62.2024   81.4744   12.6354 C.ar    1  UNL1        0.0045
     13 C          62.1033   82.9571   12.4312 C.ar    1  UNL1        0.0001
     14 C          62.8559   79.1202   11.7517 C.2     1  UNL1        0.2427
     15 N          62.9643   78.2057   10.5677 N.am    1  UNL1       -0.3253
     16 O          62.8468   78.5520   13.1399 O.2     1  UNL1       -0.2704
     17 H          62.9703   78.5787    9.6566 H       1  UNL1        0.1453
     18 H          63.0293   77.2326   10.7017 H       1  UNL1        0.1453
     19 C          62.9652   90.6271   12.5213 C.2     1  UNL1        0.2461
     20 O          61.8868   89.9136   13.2814 O.2     1  UNL1       -0.2730
     21 N          63.1028   90.4200   11.0420 N.am    1  UNL1       -0.2729
     22 C          64.1812   91.1335   10.2819 C.3     1  UNL1        0.1152
     23 C          63.9061   91.5477   13.2404 C.3     1  UNL1        0.1773
     24 N          64.6844   91.0509   14.4225 N.pl3   1  UNL1       -0.2973
     25 C          64.2511   89.8045   15.1356 C.ar    1  UNL1        0.0492
     26 C          63.4319   89.9034   16.3884 C.ar    1  UNL1        0.0154
     27 C          62.9986   88.6569   17.1015 C.ar    1  UNL1        0.0135
     28 C          63.3843   87.3116   16.5619 C.ar    1  UNL1        0.0683
     29 CL         62.9509   86.0651   17.2750 Cl      1  UNL1       -0.0814
     30 C          64.2034   87.2126   15.3092 C.ar    1  UNL1        0.0694
     31 CL         64.5891   85.8673   14.7696 Cl      1  UNL1       -0.0813
     32 C          64.6368   88.4591   14.5960 C.ar    1  UNL1        0.0268
     33 C          65.8960   91.8006   14.8915 C.3     1  UNL1        0.1234
     34 C          67.1354   91.8266   14.0470 C.3     1  UNL1        0.1636
     35 C          68.2236   93.5177   15.6920 C.3     1  UNL1        0.1742
     36 O          68.2825   92.7158   14.4256 O.3     1  UNL1       -0.3493
     37 C          61.1218   90.0615    9.3997 C.3     1  UNL1        0.0967
     38 N          60.2151   89.1385    8.6406 N.3     1  UNL1       -0.2710
     39 C          59.6064   87.8721    9.1655 C.3     1  UNL1        0.0722
     40 C          58.7730   87.2708    8.0727 C.3     1  UNL1        0.0188
     41 C          58.8668   88.1658    6.8725 C.3     1  UNL1        0.0188
     42 C          59.7580   89.3201    7.2235 C.3     1  UNL1        0.0722
@<TRIPOS>BOND
     1    35    36    1
     2    36    34    1
     3    34    33    1
     4    33    24    1
     5    24    23    1
     6    23    19    1
     7    19    20    2
     8    19    21   am
     9    21    22    1
    10    21     1    1
    11     1    37    1
    12    37    38    1
    13    38    39    1
    14    39    40    1
    15    40    41    1
    16    41    42    1
    17     1     2    1
    18     2     3   ar
    19     3     4   ar
    20     4     5   ar
    21     5     8    1
    22     8     9   ar
    23     9    10   ar
    24    10    11   ar
    25    11    14    1
    26    14    15   am
    27    14    16    2
    28    11    12   ar
    29    12    13   ar
    30     5     6   ar
    31     6     7   ar
    32    24    25    1
    33    25    26   ar
    34    26    27   ar
    35    27    28   ar
    36    28    29    1
    37    28    30   ar
    38    30    31    1
    39    30    32   ar
    40    42    38    1
    41     7     2   ar
    42    32    25   ar
    43    13     8   ar
    44    15    17    1
    45    15    18    1
@<TRIPOS>MOLECULE
*****
 42 45 0 0 0
SMALL
GASTEIGER

@<TRIPOS>ATOM
      1 C          72.0022   74.4902   15.1392 C.3     1  UNL1        0.1139
      2 C          72.1462   75.6228   14.1663 C.ar    1  UNL1       -0.0029
      3 C          70.9895   76.0156   13.2960 C.ar    1  UNL1       -0.0026
      4 C          71.1336   77.1482   12.3231 C.ar    1  UNL1       -0.0003
      5 C          72.4344   77.8880   12.2207 C.ar    1  UNL1       -0.0000
      6 C          73.5912   77.4952   13.0910 C.ar    1  UNL1       -0.0003
      7 C          73.4471   76.3626   14.0639 C.ar    1  UNL1       -0.0026
      8 C          72.5785   79.0206   11.2478 C.ar    1  UNL1        0.0000
      9 C          73.0997   78.7603    9.8656 C.ar    1  UNL1        0.0001
     10 C          73.2437   79.8930    8.8927 C.ar    1  UNL1        0.0045
     11 C          72.8666   81.2858    9.3021 C.ar    1  UNL1        0.0531
     12 C          72.3453   81.5461   10.6844 C.ar    1  UNL1        0.0045
     13 C          72.2013   80.4135   11.6572 C.ar    1  UNL1        0.0001
     14 C          73.0106   82.4184    8.3292 C.2     1  UNL1        0.2427
     15 N          73.0940   83.8303    8.8290 N.am    1  UNL1       -0.3253
     16 O          73.0712   82.1392    6.8567 O.2     1  UNL1       -0.2704
     17 H          73.0542   84.0135    9.7955 H       1  UNL1        0.1453
     18 H          73.1885   84.5737    8.1905 H       1  UNL1        0.1453
     19 C          72.8658   72.6192   13.5570 C.2     1  UNL1        0.2461
     20 O          72.1952   73.2915   12.3959 O.2     1  UNL1       -0.2730
     21 N          72.7693   73.2185   14.9287 N.am    1  UNL1       -0.2729
     22 C          73.4399   72.5462   16.0898 C.3     1  UNL1        0.1152
     23 C          73.6330   71.3475   13.3464 C.3     1  UNL1        0.1773
     24 N          72.9166   70.0297   13.3525 N.pl3   1  UNL1       -0.2973
     25 C          71.5020   69.9428   12.8615 C.ar    1  UNL1        0.0492
     26 C          70.5229   69.0393   13.5509 C.ar    1  UNL1        0.0154
     27 C          69.1082   68.9525   13.0599 C.ar    1  UNL1        0.0135
     28 C          68.6725   69.7691   11.8795 C.ar    1  UNL1        0.0683
     29 CL         67.2578   69.6823   11.3885 Cl      1  UNL1       -0.0814
     30 C          69.6515   70.6726   11.1901 C.ar    1  UNL1        0.0694
     31 CL         69.2158   71.4892   10.0098 Cl      1  UNL1       -0.0813
     32 C          71.0663   70.7595   11.6811 C.ar    1  UNL1        0.0268
     33 C          73.6149   68.7987   13.8495 C.3     1  UNL1        0.1234
     34 C          73.5526   68.4366   15.3038 C.3     1  UNL1        0.1636
     35 C          71.8757   68.4070   17.2880 C.3     1  UNL1        0.1742
     36 O          72.6078   69.1601   16.2170 O.3     1  UNL1       -0.3493
     37 C          71.0910   74.6292   16.3226 C.3     1  UNL1        0.0967
     38 N          71.1498   73.6263   17.4365 N.3     1  UNL1       -0.2710
     39 C          70.5451   72.2537   17.4197 C.3     1  UNL1        0.0722
     40 C          70.8453   71.5989   18.7356 C.3     1  UNL1        0.0188
     41 C          71.6355   72.5669   19.5654 C.3     1  UNL1        0.0188
     42 C          71.8237   73.8199   18.7625 C.3     1  UNL1        0.0722
@<TRIPOS>BOND
     1    35    36    1
     2    36    34    1
     3    34    33    1
     4    33    24    1
     5    24    23    1
     6    23    19    1
     7    19    20    2
     8    19    21   am
     9    21    22    1
    10    21     1    1
    11     1    37    1
    12    37    38    1
    13    38    39    1
    14    39    40    1
    15    40    41    1
    16    41    42    1
    17     1     2    1
    18     2     3   ar
    19     3     4   ar
    20     4     5   ar
    21     5     8    1
    22     8     9   ar
    23     9    10   ar
    24    10    11   ar
    25    11    14    1
    26    14    15   am
    27    14    16    2
    28    11    12   ar
    29    12    13   ar
    30     5     6   ar
    31     6     7   ar
    32    24    25    1
    33    25    26   ar
    34    26    27   ar
    35    27    28   ar
    36    28    29    1
    37    28    30   ar
    38    30    31    1
    39    30    32   ar
    40    42    38    1
    41     7     2   ar
    42    32    25   ar
    43    13     8   ar
    44    15    17    1
    45    15    18    1
@<TRIPOS>MOLECULE
*****
 42 45 0 0 0
SMALL
GASTEIGER

@<TRIPOS>ATOM
      1 C          63.4750   89.9137   15.0548 C.3     1  UNL1        0.1139
      2 C          63.1751   89.1528   13.7973 C.ar    1  UNL1       -0.0029
      3 C          63.8363   87.8302   13.5452 C.ar    1  UNL1       -0.0026
      4 C          63.5363   87.0694   12.2878 C.ar    1  UNL1       -0.0003
      5 C          62.5752   87.6312   11.2824 C.ar    1  UNL1       -0.0000
      6 C          61.9141   88.9538   11.5345 C.ar    1  UNL1       -0.0003
      7 C          62.2140   89.7146   12.7920 C.ar    1  UNL1       -0.0026
      8 C          62.2753   86.8703   10.0250 C.ar    1  UNL1        0.0000
      9 C          61.0221   87.1607    9.2535 C.ar    1  UNL1        0.0001
     10 C          60.7221   86.3998    7.9960 C.ar    1  UNL1        0.0045
     11 C          61.6755   85.3486    7.5101 C.ar    1  UNL1        0.0531
     12 C          62.9287   85.0583    8.2816 C.ar    1  UNL1        0.0045
     13 C          63.2286   85.8191    9.5390 C.ar    1  UNL1        0.0001
     14 C          61.3756   84.5877    6.2527 C.2     1  UNL1        0.2427
     15 N          62.4516   84.3766    5.2292 N.am    1  UNL1       -0.3253
     16 O          59.9997   84.0380    6.0187 O.2     1  UNL1       -0.2704
     17 H          63.3546   84.7374    5.3827 H       1  UNL1        0.1453
     18 H          62.2548   83.8772    4.4039 H       1  UNL1        0.1453
     19 C          64.8354   91.6526   13.6851 C.2     1  UNL1        0.2461
     20 O          64.6492   90.8243   12.4485 O.2     1  UNL1       -0.2730
     21 N          64.2483   91.1973   14.9883 N.am    1  UNL1       -0.2729
     22 C          64.4345   92.0256   16.2249 C.3     1  UNL1        0.1152
     23 C          65.6086   92.9362   13.6186 C.3     1  UNL1        0.1773
     24 N          66.8659   93.0131   12.8042 N.pl3   1  UNL1       -0.2973
     25 C          66.8727   93.7610   11.5041 C.ar    1  UNL1        0.0492
     26 C          67.8001   93.3414   10.4023 C.ar    1  UNL1        0.0154
     27 C          67.8069   94.0893    9.1021 C.ar    1  UNL1        0.0135
     28 C          66.8864   95.2569    8.9036 C.ar    1  UNL1        0.0683
     29 CL         66.8932   96.0049    7.6034 Cl      1  UNL1       -0.0814
     30 C          65.9590   95.6765   10.0054 C.ar    1  UNL1        0.0694
     31 CL         65.0385   96.8441    9.8069 Cl      1  UNL1       -0.0813
     32 C          65.9522   94.9286   11.3056 C.ar    1  UNL1        0.0268
     33 C          68.1164   92.3420   13.2900 C.3     1  UNL1        0.1234
     34 C          68.1030   91.5727   14.5776 C.3     1  UNL1        0.1636
     35 C          68.9883   93.6322   15.8909 C.3     1  UNL1        0.1742
     36 O          68.3315   92.2837   15.8785 O.3     1  UNL1       -0.3493
     37 C          63.0017   89.3910   16.3786 C.3     1  UNL1        0.0967
     38 N          62.9780   87.9134   16.6366 N.3     1  UNL1       -0.2710
     39 C          61.9930   87.1854   17.5024 C.3     1  UNL1        0.0722
     40 C          62.3413   85.7265   17.4749 C.3     1  UNL1        0.0188
     41 C          63.5416   85.5532   16.5921 C.3     1  UNL1        0.0188
     42 C          63.9351   86.9047   16.0740 C.3     1  UNL1        0.0722
@<TRIPOS>BOND
     1    35    36    1
     2    36    34    1
     3    34    33    1
     4    33    24    1
     5    24    23    1
     6    23    19    1
     7    19    20    2
     8    19    21   am
     9    21    22    1
    10    21     1    1
    11     1    37    1
    12    37    38    1
    13    38    39    1
    14    39    40    1
    15    40    41    1
    16    41    42    1
    17     1     2    1
    18     2     3   ar
    19     3     4   ar
    20     4     5   ar
    21     5     8    1
    22     8     9   ar
    23     9    10   ar
    24    10    11   ar
    25    11    14    1
    26    14    15   am
    27    14    16    2
    28    11    12   ar
    29    12    13   ar
    30     5     6   ar
    31     6     7   ar
    32    24    25    1
    33    25    26   ar
    34    26    27   ar
    35    27    28   ar
    36    28    29    1
    37    28    30   ar
    38    30    31    1
    39    30    32   ar
    40    42    38    1
    41     7     2   ar
    42    32    25   ar
    43    13     8   ar
    44    15    17    1
    45    15    18    1
@<TRIPOS>MOLECULE
*****
 42 45 0 0 0
SMALL
GASTEIGER

@<TRIPOS>ATOM
      1 C          63.0459   84.8174   11.9933 C.3     1  UNL1        0.1139
      2 C          62.3012   85.6939   11.0304 C.ar    1  UNL1       -0.0029
      3 C          62.6628   85.6854    9.5747 C.ar    1  UNL1       -0.0026
      4 C          61.9182   86.5619    8.6118 C.ar    1  UNL1       -0.0003
      5 C          60.8119   87.4469    9.1047 C.ar    1  UNL1       -0.0000
      6 C          60.4503   87.4554   10.5604 C.ar    1  UNL1       -0.0003
      7 C          61.1949   86.5789   11.5232 C.ar    1  UNL1       -0.0026
      8 C          60.0672   88.3235    8.1417 C.ar    1  UNL1        0.0000
      9 C          60.5764   89.7001    7.8326 C.ar    1  UNL1        0.0001
     10 C          59.8317   90.5766    6.8696 C.ar    1  UNL1        0.0045
     11 C          58.5778   90.0764    6.2158 C.ar    1  UNL1        0.0531
     12 C          58.0685   88.6998    6.5250 C.ar    1  UNL1        0.0045
     13 C          58.8132   87.8233    7.4879 C.ar    1  UNL1        0.0001
     14 C          57.8331   90.9529    5.2529 C.2     1  UNL1        0.2427
     15 N          58.5870   91.8730    4.3392 N.am    1  UNL1       -0.3253
     16 O          56.3345   90.9092    5.2038 O.2     1  UNL1       -0.2704
     17 H          59.5705   91.9016    4.3714 H       1  UNL1        0.1453
     18 H          58.0982   92.4482    3.7072 H       1  UNL1        0.1453
     19 C          63.7941   86.8675   13.4032 C.2     1  UNL1        0.2461
     20 O          63.4937   87.7731   12.2458 O.2     1  UNL1       -0.2730
     21 N          63.5702   85.3896   13.2770 N.am    1  UNL1       -0.2729
     22 C          63.8707   84.4840   14.4343 C.3     1  UNL1        0.1152
     23 C          64.3185   87.4396   14.6868 C.3     1  UNL1        0.1773
     24 N          64.1146   88.8926   14.9988 N.pl3   1  UNL1       -0.2973
     25 C          64.4366   89.9334   13.9679 C.ar    1  UNL1        0.0492
     26 C          65.6612   90.7862   14.1202 C.ar    1  UNL1        0.0154
     27 C          65.9833   91.8271   13.0892 C.ar    1  UNL1        0.0135
     28 C          65.0808   92.0151   11.9059 C.ar    1  UNL1        0.0683
     29 CL         65.4029   93.0560   10.8749 Cl      1  UNL1       -0.0814
     30 C          63.8562   91.1623   11.7536 C.ar    1  UNL1        0.0694
     31 CL         62.9537   91.3504   10.5703 Cl      1  UNL1       -0.0813
     32 C          63.5341   90.1214   12.7846 C.ar    1  UNL1        0.0268
     33 C          63.5887   89.3047   16.3418 C.3     1  UNL1        0.1234
     34 C          62.6798   90.4920   16.4592 C.3     1  UNL1        0.1636
     35 C          64.7215   92.0802   16.7022 C.3     1  UNL1        0.1742
     36 O          63.2448   91.8378   16.8050 O.3     1  UNL1       -0.3493
     37 C          63.2663   83.3688   11.6726 C.3     1  UNL1        0.0967
     38 N          62.7865   82.3094   12.6201 N.3     1  UNL1       -0.2710
     39 C          63.5398   81.0744   13.0164 C.3     1  UNL1        0.0722
     40 C          62.6881   80.3007   13.9789 C.3     1  UNL1        0.0188
     41 C          61.4084   81.0578   14.1773 C.3     1  UNL1        0.0188
     42 C          61.4692   82.2992   13.3376 C.3     1  UNL1        0.0722
@<TRIPOS>BOND
     1    35    36    1
     2    36    34    1
     3    34    33    1
     4    33    24    1
     5    24    23    1
     6    23    19    1
     7    19    20    2
     8    19    21   am
     9    21    22    1
    10    21     1    1
    11     1    37    1
    12    37    38    1
    13    38    39    1
    14    39    40    1
    15    40    41    1
    16    41    42    1
    17     1     2    1
    18     2     3   ar
    19     3     4   ar
    20     4     5   ar
    21     5     8    1
    22     8     9   ar
    23     9    10   ar
    24    10    11   ar
    25    11    14    1
    26    14    15   am
    27    14    16    2
    28    11    12   ar
    29    12    13   ar
    30     5     6   ar
    31     6     7   ar
    32    24    25    1
    33    25    26   ar
    34    26    27   ar
    35    27    28   ar
    36    28    29    1
    37    28    30   ar
    38    30    31    1
    39    30    32   ar
    40    42    38    1
    41     7     2   ar
    42    32    25   ar
    43    13     8   ar
    44    15    17    1
    45    15    18    1
