@<TRIPOS>MOLECULE
*****
 35 39 0 0 0
SMALL
GASTEIGER

@<TRIPOS>ATOM
      1 C          64.0221   90.7574   13.0997 C.3     1  UNL1        0.0840
      2 C          65.2008   91.6851   13.1043 C.3     1  UNL1        0.0095
      3 C          65.4914   92.5345   11.9026 C.3     1  UNL1        0.0005
      4 C          65.7820   93.3839   10.7009 C.3     1  UNL1        0.0000
      5 C          64.6034   92.4562   10.6963 C.3     1  UNL1        0.0005
      6 C          63.4247   91.5284   10.6917 C.3     1  UNL1        0.0082
      7 C          63.1341   90.6791   11.8934 C.3     1  UNL1        0.0705
      8 N          64.0211   88.4367   14.2677 N.am    1  UNL1       -0.2815
      9 C          63.7315   89.9081   14.3014 C.2     1  UNL1        0.2261
     10 O          63.1513   90.5302   15.5370 O.2     1  UNL1       -0.2748
     11 H          64.4019   88.0284   13.4568 H       1  UNL1        0.1549
     12 C          62.5576   86.9176   19.1083 C.3     1  UNL1        0.1538
     13 N          63.0578   86.8891   17.6944 N.ar    1  UNL1       -0.2461
     14 C          63.1948   88.0731   16.7837 C.ar    1  UNL1        0.1112
     15 C          63.7305   87.5874   15.4695 C.ar    1  UNL1        0.0929
     16 C          63.9245   86.1032   15.5680 C.ar    1  UNL1        0.1869
     17 N          63.5087   85.6716   16.9431 N.ar    1  UNL1       -0.1639
     18 C          64.4432   85.2078   14.4820 C.3     1  UNL1        0.4377
     19 F          64.9619   84.3125   13.3960 F       1  UNL1       -0.1643
     20 F          65.8479   85.6090   14.8222 F       1  UNL1       -0.1643
     21 F          63.0384   84.8067   14.1417 F       1  UNL1       -0.1643
     22 C          61.9554   89.7513   11.8888 C.2     1  UNL1        0.1731
     23 O          60.9152   89.8549   12.9646 O.2     1  UNL1       -0.2913
     24 C          61.8169   88.7201   10.8084 C.ar    1  UNL1        0.0347
     25 C          60.9731   89.0066    9.6018 C.ar    1  UNL1        0.0029
     26 C          60.8346   87.9753    8.5214 C.ar    1  UNL1        0.0016
     27 C          61.5398   86.6575    8.6476 C.ar    1  UNL1        0.0171
     28 C          62.3837   86.3709    9.8542 C.ar    1  UNL1        0.0016
     29 C          62.5222   87.4022   10.9346 C.ar    1  UNL1        0.0029
     30 C          61.4013   85.6262    7.5672 C.ar    1  UNL1        0.0754
     31 C          62.5282   84.9302    6.8630 C.ar    1  UNL1        0.0409
     32 C          61.9348   83.9837    5.8619 C.ar    1  UNL1        0.1214
     33 N          60.4414   84.0947    5.9474 N.ar    1  UNL1       -0.1711
     34 N          60.1117   85.1098    7.0014 N.ar    1  UNL1       -0.2757
     35 H          59.2075   85.3883    7.2739 H       1  UNL1        0.1889
@<TRIPOS>BOND
     1    12    13    1
     2    13    14   ar
     3    14    15   ar
     4    15     8    1
     5     8     9   am
     6     9    10    2
     7     1     9    1
     8     1     2    1
     9     3     2    1
    10     3     4    1
    11     5     4    1
    12     5     6    1
    13     6     7    1
    14     7    22    1
    15    22    23    2
    16    22    24    1
    17    24    25   ar
    18    25    26   ar
    19    26    27   ar
    20    27    30    1
    21    30    31   ar
    22    31    32   ar
    23    32    33   ar
    24    33    34   ar
    25    27    28   ar
    26    28    29   ar
    27    15    16   ar
    28    16    18    1
    29    18    19    1
    30    18    20    1
    31    18    21    1
    32    16    17   ar
    33    17    13   ar
    34     7     1    1
    35    29    24   ar
    36     5     3    1
    37    34    30   ar
    38     8    11    1
    39    34    35    1
@<TRIPOS>MOLECULE
*****
 35 39 0 0 0
SMALL
GASTEIGER

@<TRIPOS>ATOM
      1 C          61.2002   86.8161    9.7178 C.3     1  UNL1        0.0840
      2 C          60.4712   86.3411    8.4960 C.3     1  UNL1        0.0095
      3 C          59.6083   87.2919    7.7204 C.3     1  UNL1        0.0005
      4 C          58.7455   88.2427    6.9449 C.3     1  UNL1        0.0000
      5 C          59.4746   88.7177    8.1667 C.3     1  UNL1        0.0005
      6 C          60.2037   89.1927    9.3886 C.3     1  UNL1        0.0082
      7 C          61.0665   88.2419   10.1641 C.3     1  UNL1        0.0705
      8 N          61.7880   85.6181   11.9470 N.am    1  UNL1       -0.2815
      9 C          62.0630   85.8652   10.4933 C.2     1  UNL1        0.2261
     10 O          63.2010   85.1615    9.8151 O.2     1  UNL1       -0.2748
     11 H          61.0411   86.0800   12.3921 H       1  UNL1        0.1549
     12 C          64.0377   81.1811   13.7171 C.3     1  UNL1        0.1538
     13 N          63.6849   82.6278   13.5361 N.ar    1  UNL1       -0.2461
     14 C          62.6828   83.1760   12.5639 C.ar    1  UNL1        0.1112
     15 C          62.6508   84.6672   12.7225 C.ar    1  UNL1        0.0929
     16 C          63.6333   85.0407   13.7928 C.ar    1  UNL1        0.1869
     17 N          64.2724   83.7803   14.2956 N.ar    1  UNL1       -0.1639
     18 C          63.9253   86.4307   14.2754 C.3     1  UNL1        0.4377
     19 F          64.2172   87.8206   14.7579 F       1  UNL1       -0.1643
     20 F          64.0447   86.8986   12.8553 F       1  UNL1       -0.1643
     21 F          63.8058   85.9627   15.6955 F       1  UNL1       -0.1643
     22 C          61.7955   88.7168   11.3859 C.2     1  UNL1        0.1731
     23 O          61.5730   88.0363   12.7040 O.2     1  UNL1       -0.2913
     24 C          62.7471   89.8724   11.2896 C.ar    1  UNL1        0.0347
     25 C          63.5823   90.2569   12.4748 C.ar    1  UNL1        0.0029
     26 C          64.5338   91.4125   12.3785 C.ar    1  UNL1        0.0016
     27 C          64.6502   92.1835   11.0971 C.ar    1  UNL1        0.0171
     28 C          63.8150   91.7989    9.9119 C.ar    1  UNL1        0.0016
     29 C          62.8635   90.6434   10.0081 C.ar    1  UNL1        0.0029
     30 C          65.6018   93.3390   11.0009 C.ar    1  UNL1        0.0754
     31 C          66.5198   93.6318    9.8512 C.ar    1  UNL1        0.0409
     32 C          67.2878   94.8784   10.1772 C.ar    1  UNL1        0.1214
     33 N          66.8445   95.3560   11.5283 N.ar    1  UNL1       -0.1711
     34 N          65.8025   94.4046   12.0373 N.ar    1  UNL1       -0.2757
     35 H          65.3328   94.4683   12.9002 H       1  UNL1        0.1889
@<TRIPOS>BOND
     1    12    13    1
     2    13    14   ar
     3    14    15   ar
     4    15     8    1
     5     8     9   am
     6     9    10    2
     7     1     9    1
     8     1     2    1
     9     3     2    1
    10     3     4    1
    11     5     4    1
    12     5     6    1
    13     6     7    1
    14     7    22    1
    15    22    23    2
    16    22    24    1
    17    24    25   ar
    18    25    26   ar
    19    26    27   ar
    20    27    30    1
    21    30    31   ar
    22    31    32   ar
    23    32    33   ar
    24    33    34   ar
    25    27    28   ar
    26    28    29   ar
    27    15    16   ar
    28    16    18    1
    29    18    19    1
    30    18    20    1
    31    18    21    1
    32    16    17   ar
    33    17    13   ar
    34     7     1    1
    35    29    24   ar
    36     5     3    1
    37    34    30   ar
    38     8    11    1
    39    34    35    1
@<TRIPOS>MOLECULE
*****
 35 39 0 0 0
SMALL
GASTEIGER

@<TRIPOS>ATOM
      1 C          61.4451   87.7067   10.4813 C.3     1  UNL1        0.0840
      2 C          61.2678   87.1875    9.0853 C.3     1  UNL1        0.0095
      3 C          60.4934   87.9877    8.0802 C.3     1  UNL1        0.0005
      4 C          59.7191   88.7878    7.0751 C.3     1  UNL1        0.0000
      5 C          59.8964   89.3070    8.4712 C.3     1  UNL1        0.0005
      6 C          60.0737   89.8262    9.8673 C.3     1  UNL1        0.0082
      7 C          60.8480   89.0261   10.8723 C.3     1  UNL1        0.0705
      8 N          61.8764   85.4656   11.7228 N.am    1  UNL1       -0.2815
      9 C          62.2194   86.9066   11.4864 C.2     1  UNL1        0.2261
     10 O          63.3368   87.5474   12.2550 O.2     1  UNL1       -0.2748
     11 H          61.1430   85.0450   11.2184 H       1  UNL1        0.1549
     12 C          64.0562   83.8516   16.2532 C.3     1  UNL1        0.1538
     13 N          63.6527   83.9236   14.8103 N.ar    1  UNL1       -0.2461
     14 C          62.7990   84.9870   14.1855 C.ar    1  UNL1        0.1112
     15 C          62.6507   84.6655   12.7279 C.ar    1  UNL1        0.0929
     16 C          63.4129   83.4033   12.4518 C.ar    1  UNL1        0.1869
     17 N          64.0321   82.9448   13.7388 N.ar    1  UNL1       -0.1639
     18 C          63.5344   82.7197   11.1221 C.3     1  UNL1        0.4377
     19 F          63.6559   82.0362    9.7924 F       1  UNL1       -0.1643
     20 F          64.7776   83.5069   10.8311 F       1  UNL1       -0.1643
     21 F          62.2911   81.9326   11.4131 F       1  UNL1       -0.1643
     22 C          61.0253   89.5453   12.2684 C.2     1  UNL1        0.1731
     23 O          59.8938   89.4603   13.2495 O.2     1  UNL1       -0.2913
     24 C          62.3340   90.1494   12.6833 C.ar    1  UNL1        0.0347
     25 C          62.8320   89.9690   14.0867 C.ar    1  UNL1        0.0029
     26 C          64.1407   90.5731   14.5017 C.ar    1  UNL1        0.0016
     27 C          64.9515   91.3578   13.5133 C.ar    1  UNL1        0.0171
     28 C          64.4535   91.5383   12.1099 C.ar    1  UNL1        0.0016
     29 C          63.1448   90.9341   11.6949 C.ar    1  UNL1        0.0029
     30 C          66.2602   91.9620   13.9283 C.ar    1  UNL1        0.0754
     31 C          66.5129   92.7399   15.1857 C.ar    1  UNL1        0.0409
     32 C          67.9549   93.1530   15.1932 C.ar    1  UNL1        0.1214
     33 N          68.5934   92.6304   13.9405 N.ar    1  UNL1       -0.1711
     34 N          67.5460   91.8943   13.1588 N.ar    1  UNL1       -0.2757
     35 H          67.6791   91.4456   12.2926 H       1  UNL1        0.1889
@<TRIPOS>BOND
     1    12    13    1
     2    13    14   ar
     3    14    15   ar
     4    15     8    1
     5     8     9   am
     6     9    10    2
     7     1     9    1
     8     1     2    1
     9     3     2    1
    10     3     4    1
    11     5     4    1
    12     5     6    1
    13     6     7    1
    14     7    22    1
    15    22    23    2
    16    22    24    1
    17    24    25   ar
    18    25    26   ar
    19    26    27   ar
    20    27    30    1
    21    30    31   ar
    22    31    32   ar
    23    32    33   ar
    24    33    34   ar
    25    27    28   ar
    26    28    29   ar
    27    15    16   ar
    28    16    18    1
    29    18    19    1
    30    18    20    1
    31    18    21    1
    32    16    17   ar
    33    17    13   ar
    34     7     1    1
    35    29    24   ar
    36     5     3    1
    37    34    30   ar
    38     8    11    1
    39    34    35    1
@<TRIPOS>MOLECULE
*****
 35 39 0 0 0
SMALL
GASTEIGER

@<TRIPOS>ATOM
      1 C          61.1792   87.1134   10.2555 C.3     1  UNL1        0.0840
      2 C          60.6447   86.3085    9.1082 C.3     1  UNL1        0.0095
      3 C          59.7809   86.9629    8.0710 C.3     1  UNL1        0.0005
      4 C          58.9173   87.6173    7.0338 C.3     1  UNL1        0.0000
      5 C          59.4518   88.4222    8.1812 C.3     1  UNL1        0.0005
      6 C          59.9864   89.2271    9.3286 C.3     1  UNL1        0.0082
      7 C          60.8501   88.5726   10.3657 C.3     1  UNL1        0.0705
      8 N          61.9492   84.9795   11.5219 N.am    1  UNL1       -0.2815
      9 C          62.0429   86.4589   11.2927 C.2     1  UNL1        0.2261
     10 O          63.0003   87.2839   12.1007 O.2     1  UNL1       -0.2748
     11 H          61.3209   84.4380   10.9916 H       1  UNL1        0.1549
     12 C          64.5260   84.0112   16.0279 C.3     1  UNL1        0.1538
     13 N          63.9974   83.8800   14.6302 N.ar    1  UNL1       -0.2461
     14 C          63.0865   84.8497   13.9375 C.ar    1  UNL1        0.1112
     15 C          62.8130   84.3251   12.5591 C.ar    1  UNL1        0.0929
     16 C          63.5548   83.0311   12.4000 C.ar    1  UNL1        0.1869
     17 N          64.2868   82.7560   13.6800 N.ar    1  UNL1       -0.1639
     18 C          63.5632   82.1643   11.1757 C.3     1  UNL1        0.4377
     19 F          63.5714   81.2976    9.9515 F       1  UNL1       -0.1643
     20 F          62.4804   81.3137   11.7706 F       1  UNL1       -0.1643
     21 F          64.6459   83.0150   10.5808 F       1  UNL1       -0.1643
     22 C          61.3847   89.3775   11.5130 C.2     1  UNL1        0.1731
     23 O          60.8090   89.1994   12.8867 O.2     1  UNL1       -0.2913
     24 C          62.4948   90.3605   11.2867 C.ar    1  UNL1        0.0347
     25 C          62.6740   90.9922    9.9381 C.ar    1  UNL1        0.0029
     26 C          63.7842   91.9752    9.7118 C.ar    1  UNL1        0.0016
     27 C          64.7152   92.3265   10.8341 C.ar    1  UNL1        0.0171
     28 C          64.5361   91.6948   12.1829 C.ar    1  UNL1        0.0016
     29 C          63.4259   90.7118   12.4092 C.ar    1  UNL1        0.0029
     30 C          65.8254   93.3095   10.6079 C.ar    1  UNL1        0.0754
     31 C          65.7494   94.7914   10.8277 C.ar    1  UNL1        0.0409
     32 C          67.0836   95.3809   10.4777 C.ar    1  UNL1        0.1214
     33 N          67.9841   94.2634   10.0416 N.ar    1  UNL1       -0.1711
     34 N          67.2065   92.9832   10.1221 N.ar    1  UNL1       -0.2757
     35 H          67.5435   92.0863    9.8957 H       1  UNL1        0.1889
@<TRIPOS>BOND
     1    12    13    1
     2    13    14   ar
     3    14    15   ar
     4    15     8    1
     5     8     9   am
     6     9    10    2
     7     1     9    1
     8     1     2    1
     9     3     2    1
    10     3     4    1
    11     5     4    1
    12     5     6    1
    13     6     7    1
    14     7    22    1
    15    22    23    2
    16    22    24    1
    17    24    25   ar
    18    25    26   ar
    19    26    27   ar
    20    27    30    1
    21    30    31   ar
    22    31    32   ar
    23    32    33   ar
    24    33    34   ar
    25    27    28   ar
    26    28    29   ar
    27    15    16   ar
    28    16    18    1
    29    18    19    1
    30    18    20    1
    31    18    21    1
    32    16    17   ar
    33    17    13   ar
    34     7     1    1
    35    29    24   ar
    36     5     3    1
    37    34    30   ar
    38     8    11    1
    39    34    35    1
@<TRIPOS>MOLECULE
*****
 35 39 0 0 0
SMALL
GASTEIGER

@<TRIPOS>ATOM
      1 C          62.7140   90.1826   11.5889 C.3     1  UNL1        0.0840
      2 C          61.9166   90.9021   10.5419 C.3     1  UNL1        0.0095
      3 C          61.0331   90.1285    9.6086 C.3     1  UNL1        0.0005
      4 C          60.1496   89.3549    8.6754 C.3     1  UNL1        0.0000
      5 C          60.9470   88.6353    9.7224 C.3     1  UNL1        0.0005
      6 C          61.7444   87.9158   10.7695 C.3     1  UNL1        0.0082
      7 C          62.6279   88.6894   11.7028 C.3     1  UNL1        0.0705
      8 N          64.9531   91.4101   12.0680 N.am    1  UNL1       -0.2815
      9 C          63.5975   90.9562   12.5221 C.2     1  UNL1        0.2261
     10 O          63.1253   91.2759   13.9096 O.2     1  UNL1       -0.2748
     11 H          65.2630   91.2002   11.1574 H       1  UNL1        0.1549
     12 C          67.8070   92.7962   16.2888 C.3     1  UNL1        0.1538
     13 N          67.1484   92.8209   14.9414 N.ar    1  UNL1       -0.2461
     14 C          66.2786   91.7431   14.3652 C.ar    1  UNL1        0.1112
     15 C          65.8366   92.1837   13.0013 C.ar    1  UNL1        0.0929
     16 C          66.4332   93.5339   12.7344 C.ar    1  UNL1        0.1869
     17 N          67.2439   93.9277   13.9334 N.ar    1  UNL1       -0.1639
     18 C          66.2509   94.3474   11.4874 C.3     1  UNL1        0.4377
     19 F          66.0687   95.1609   10.2403 F       1  UNL1       -0.1643
     20 F          66.4944   93.1243   10.6539 F       1  UNL1       -0.1643
     21 F          66.0075   95.5706   12.3208 F       1  UNL1       -0.1643
     22 C          63.4252   87.9698   12.7498 C.2     1  UNL1        0.1731
     23 O          64.3499   88.7373   13.6476 O.2     1  UNL1       -0.2913
     24 C          63.2980   86.4827   12.8992 C.ar    1  UNL1        0.0347
     25 C          62.7137   85.6644   11.7861 C.ar    1  UNL1        0.0029
     26 C          62.5864   84.1773   11.9355 C.ar    1  UNL1        0.0016
     27 C          63.0434   83.5085   13.1979 C.ar    1  UNL1        0.0171
     28 C          63.6277   84.3268   14.3111 C.ar    1  UNL1        0.0016
     29 C          63.7550   85.8139   14.1617 C.ar    1  UNL1        0.0029
     30 C          62.9162   82.0214   13.3473 C.ar    1  UNL1        0.0754
     31 C          62.6917   81.0396   12.2356 C.ar    1  UNL1        0.0409
     32 C          62.6278   79.6664   12.8358 C.ar    1  UNL1        0.1214
     33 N          62.8128   79.7994   14.3184 N.ar    1  UNL1       -0.1711
     34 N          62.9910   81.2549   14.6345 N.ar    1  UNL1       -0.2757
     35 H          63.1322   81.6396   15.5297 H       1  UNL1        0.1889
@<TRIPOS>BOND
     1    12    13    1
     2    13    14   ar
     3    14    15   ar
     4    15     8    1
     5     8     9   am
     6     9    10    2
     7     1     9    1
     8     1     2    1
     9     3     2    1
    10     3     4    1
    11     5     4    1
    12     5     6    1
    13     6     7    1
    14     7    22    1
    15    22    23    2
    16    22    24    1
    17    24    25   ar
    18    25    26   ar
    19    26    27   ar
    20    27    30    1
    21    30    31   ar
    22    31    32   ar
    23    32    33   ar
    24    33    34   ar
    25    27    28   ar
    26    28    29   ar
    27    15    16   ar
    28    16    18    1
    29    18    19    1
    30    18    20    1
    31    18    21    1
    32    16    17   ar
    33    17    13   ar
    34     7     1    1
    35    29    24   ar
    36     5     3    1
    37    34    30   ar
    38     8    11    1
    39    34    35    1
@<TRIPOS>MOLECULE
*****
 35 39 0 0 0
SMALL
GASTEIGER

@<TRIPOS>ATOM
      1 C          62.3025   85.7108   10.3439 C.3     1  UNL1        0.0840
      2 C          62.6777   84.6113    9.3951 C.3     1  UNL1        0.0095
      3 C          62.3350   84.7274    7.9393 C.3     1  UNL1        0.0005
      4 C          61.9922   84.8435    6.4837 C.3     1  UNL1        0.0000
      5 C          61.6169   85.9430    7.4325 C.3     1  UNL1        0.0005
      6 C          61.2417   87.0425    8.3814 C.3     1  UNL1        0.0082
      7 C          61.5845   86.9264    9.8371 C.3     1  UNL1        0.0705
      8 N          62.1372   84.4319   12.5993 N.am    1  UNL1       -0.2815
      9 C          62.6453   85.5947   11.7996 C.2     1  UNL1        0.2261
     10 O          63.4963   86.6415   12.4555 O.2     1  UNL1       -0.2748
     11 H          61.5786   83.7449   12.1689 H       1  UNL1        0.1549
     12 C          63.0725   85.6513   17.6510 C.3     1  UNL1        0.1538
     13 N          62.9099   84.8764   16.3770 N.ar    1  UNL1       -0.2461
     14 C          62.5235   85.4435   15.0433 C.ar    1  UNL1        0.1112
     15 C          62.4800   84.3159   14.0551 C.ar    1  UNL1        0.0929
     16 C          62.8395   83.0518   14.7781 C.ar    1  UNL1        0.1869
     17 N          63.1052   83.3981   16.2132 N.ar    1  UNL1       -0.1639
     18 C          62.9193   81.6818   14.1724 C.3     1  UNL1        0.4377
     19 F          62.9992   80.3119   13.5667 F       1  UNL1       -0.1643
     20 F          64.2665   82.0126   13.6018 F       1  UNL1       -0.1643
     21 F          61.5721   81.3510   14.7430 F       1  UNL1       -0.1643
     22 C          61.2093   88.0259   10.7859 C.2     1  UNL1        0.1731
     23 O          59.8881   87.9862   11.4951 O.2     1  UNL1       -0.2913
     24 C          62.1552   89.1651   11.0256 C.ar    1  UNL1        0.0347
     25 C          62.5396   90.0715    9.8940 C.ar    1  UNL1        0.0029
     26 C          63.4855   91.2107   10.1337 C.ar    1  UNL1        0.0016
     27 C          64.0471   91.4435   11.5049 C.ar    1  UNL1        0.0171
     28 C          63.6628   90.5369   12.6366 C.ar    1  UNL1        0.0016
     29 C          62.7169   89.3978   12.3969 C.ar    1  UNL1        0.0029
     30 C          64.9930   92.5827   11.7446 C.ar    1  UNL1        0.0754
     31 C          65.4054   93.6135   10.7358 C.ar    1  UNL1        0.0409
     32 C          66.3599   94.5589   11.4029 C.ar    1  UNL1        0.1214
     33 N          66.5375   94.1125   12.8239 N.ar    1  UNL1       -0.1711
     34 N          65.6927   92.8911   13.0350 N.ar    1  UNL1       -0.2757
     35 H          65.6117   92.3814   13.8734 H       1  UNL1        0.1889
@<TRIPOS>BOND
     1    12    13    1
     2    13    14   ar
     3    14    15   ar
     4    15     8    1
     5     8     9   am
     6     9    10    2
     7     1     9    1
     8     1     2    1
     9     3     2    1
    10     3     4    1
    11     5     4    1
    12     5     6    1
    13     6     7    1
    14     7    22    1
    15    22    23    2
    16    22    24    1
    17    24    25   ar
    18    25    26   ar
    19    26    27   ar
    20    27    30    1
    21    30    31   ar
    22    31    32   ar
    23    32    33   ar
    24    33    34   ar
    25    27    28   ar
    26    28    29   ar
    27    15    16   ar
    28    16    18    1
    29    18    19    1
    30    18    20    1
    31    18    21    1
    32    16    17   ar
    33    17    13   ar
    34     7     1    1
    35    29    24   ar
    36     5     3    1
    37    34    30   ar
    38     8    11    1
    39    34    35    1
@<TRIPOS>MOLECULE
*****
 35 39 0 0 0
SMALL
GASTEIGER

@<TRIPOS>ATOM
      1 C          62.7980   87.0528   12.5071 C.3     1  UNL1        0.0840
      2 C          63.3029   85.6594   12.7382 C.3     1  UNL1        0.0095
      3 C          64.3008   85.3941   13.8264 C.3     1  UNL1        0.0005
      4 C          65.2986   85.1289   14.9144 C.3     1  UNL1        0.0000
      5 C          64.7937   86.5222   14.6833 C.3     1  UNL1        0.0005
      6 C          64.2887   87.9157   14.4522 C.3     1  UNL1        0.0082
      7 C          63.2909   88.1810   13.3641 C.3     1  UNL1        0.0705
      8 N          62.2632   87.4926   10.0030 N.am    1  UNL1       -0.2815
      9 C          61.8002   87.3181   11.4191 C.2     1  UNL1        0.2261
     10 O          60.3392   87.4089   11.7470 O.2     1  UNL1       -0.2748
     11 H          63.2221   87.4330    9.7878 H       1  UNL1        0.1549
     12 C          58.6132   89.8486    7.0018 C.3     1  UNL1        0.1538
     13 N          59.5876   88.8408    7.5354 N.ar    1  UNL1       -0.2461
     14 C          60.4488   89.0056    8.7525 C.ar    1  UNL1        0.1112
     15 C          61.2653   87.7578    8.9149 C.ar    1  UNL1        0.0929
     16 C          60.9088   86.8219    7.7982 C.ar    1  UNL1        0.1869
     17 N          59.8719   87.4912    6.9456 N.ar    1  UNL1       -0.1639
     18 C          61.4876   85.4564    7.5736 C.3     1  UNL1        0.4377
     19 F          62.0665   84.0909    7.3491 F       1  UNL1       -0.1643
     20 F          62.8135   85.9339    8.0874 F       1  UNL1       -0.1643
     21 F          60.1618   84.9788    7.0599 F       1  UNL1       -0.1643
     22 C          62.7859   89.5743   13.1330 C.2     1  UNL1        0.1731
     23 O          61.3918   89.9448   13.5445 O.2     1  UNL1       -0.2913
     24 C          63.6751   90.5974   12.4905 C.ar    1  UNL1        0.0347
     25 C          64.7586   91.2577   13.2903 C.ar    1  UNL1        0.0029
     26 C          65.6477   92.2808   12.6478 C.ar    1  UNL1        0.0016
     27 C          65.4533   92.6434   11.2053 C.ar    1  UNL1        0.0171
     28 C          64.3698   91.9830   10.4054 C.ar    1  UNL1        0.0016
     29 C          63.4806   90.9600   11.0479 C.ar    1  UNL1        0.0029
     30 C          66.3425   93.6664   10.5628 C.ar    1  UNL1        0.0754
     31 C          66.0076   95.1120   10.3427 C.ar    1  UNL1        0.0409
     32 C          67.1808   95.7624    9.6713 C.ar    1  UNL1        0.1214
     33 N          68.2406   94.7190    9.4766 N.ar    1  UNL1       -0.1711
     34 N          67.7225   93.4236   10.0275 N.ar    1  UNL1       -0.2757
     35 H          68.2037   92.5647   10.0362 H       1  UNL1        0.1889
@<TRIPOS>BOND
     1    12    13    1
     2    13    14   ar
     3    14    15   ar
     4    15     8    1
     5     8     9   am
     6     9    10    2
     7     1     9    1
     8     1     2    1
     9     3     2    1
    10     3     4    1
    11     5     4    1
    12     5     6    1
    13     6     7    1
    14     7    22    1
    15    22    23    2
    16    22    24    1
    17    24    25   ar
    18    25    26   ar
    19    26    27   ar
    20    27    30    1
    21    30    31   ar
    22    31    32   ar
    23    32    33   ar
    24    33    34   ar
    25    27    28   ar
    26    28    29   ar
    27    15    16   ar
    28    16    18    1
    29    18    19    1
    30    18    20    1
    31    18    21    1
    32    16    17   ar
    33    17    13   ar
    34     7     1    1
    35    29    24   ar
    36     5     3    1
    37    34    30   ar
    38     8    11    1
    39    34    35    1
@<TRIPOS>MOLECULE
*****
 35 39 0 0 0
SMALL
GASTEIGER

@<TRIPOS>ATOM
      1 C          63.9847   90.8242   13.2041 C.3     1  UNL1        0.0840
      2 C          64.7644   91.8245   12.4032 C.3     1  UNL1        0.0095
      3 C          65.8771   92.5975   13.0472 C.3     1  UNL1        0.0005
      4 C          66.9896   93.3704   13.6911 C.3     1  UNL1        0.0000
      5 C          66.2099   92.3701   14.4920 C.3     1  UNL1        0.0005
      6 C          65.4301   91.3698   15.2929 C.3     1  UNL1        0.0082
      7 C          64.3175   90.5969   14.6489 C.3     1  UNL1        0.0705
      8 N          63.0034   89.5913   11.1384 N.am    1  UNL1       -0.2815
      9 C          62.8721   90.0512   12.5601 C.2     1  UNL1        0.2261
     10 O          61.6282   89.7382   13.3379 O.2     1  UNL1       -0.2748
     11 H          63.8198   89.7967   10.6280 H       1  UNL1        0.1549
     12 C          60.3539   85.8963    8.4536 C.3     1  UNL1        0.1538
     13 N          60.6729   87.1199    9.2604 N.ar    1  UNL1       -0.2461
     14 C          62.0366   87.5405    9.7225 C.ar    1  UNL1        0.1112
     15 C          61.8908   88.8183   10.4945 C.ar    1  UNL1        0.0929
     16 C          60.4370   89.1875   10.5094 C.ar    1  UNL1        0.1869
     17 N          59.6843   88.1378    9.7468 N.ar    1  UNL1       -0.1639
     18 C          59.8406   90.3945   11.1710 C.3     1  UNL1        0.4377
     19 F          59.2443   91.6015   11.8325 F       1  UNL1       -0.1643
     20 F          60.7584   91.2804   10.3818 F       1  UNL1       -0.1643
     21 F          58.9228   89.5086   11.9602 F       1  UNL1       -0.1643
     22 C          63.5378   89.5966   15.4498 C.2     1  UNL1        0.1731
     23 O          62.6521   90.0584   16.5689 O.2     1  UNL1       -0.2913
     24 C          63.6438   88.1346   15.1316 C.ar    1  UNL1        0.0347
     25 C          63.4866   87.1165   16.2219 C.ar    1  UNL1        0.0029
     26 C          63.5926   85.6544   15.9037 C.ar    1  UNL1        0.0016
     27 C          63.8557   85.2105   14.4953 C.ar    1  UNL1        0.0171
     28 C          64.0128   86.2286   13.4050 C.ar    1  UNL1        0.0016
     29 C          63.9069   87.6907   13.7231 C.ar    1  UNL1        0.0029
     30 C          63.9616   83.7485   14.1772 C.ar    1  UNL1        0.0754
     31 C          64.3464   83.1601   12.8520 C.ar    1  UNL1        0.0409
     32 C          64.3240   81.6661   12.9842 C.ar    1  UNL1        0.1214
     33 N          63.9254   81.3311   14.3909 N.ar    1  UNL1       -0.1711
     34 N          63.7014   82.6181   15.1282 N.ar    1  UNL1       -0.2757
     35 H          63.4312   82.7055   16.0708 H       1  UNL1        0.1889
@<TRIPOS>BOND
     1    12    13    1
     2    13    14   ar
     3    14    15   ar
     4    15     8    1
     5     8     9   am
     6     9    10    2
     7     1     9    1
     8     1     2    1
     9     3     2    1
    10     3     4    1
    11     5     4    1
    12     5     6    1
    13     6     7    1
    14     7    22    1
    15    22    23    2
    16    22    24    1
    17    24    25   ar
    18    25    26   ar
    19    26    27   ar
    20    27    30    1
    21    30    31   ar
    22    31    32   ar
    23    32    33   ar
    24    33    34   ar
    25    27    28   ar
    26    28    29   ar
    27    15    16   ar
    28    16    18    1
    29    18    19    1
    30    18    20    1
    31    18    21    1
    32    16    17   ar
    33    17    13   ar
    34     7     1    1
    35    29    24   ar
    36     5     3    1
    37    34    30   ar
    38     8    11    1
    39    34    35    1
@<TRIPOS>MOLECULE
*****
 35 39 0 0 0
SMALL
GASTEIGER

@<TRIPOS>ATOM
      1 C          62.6657   93.7564    0.7347 C.3     1  UNL1        0.0840
      2 C          63.7558   92.9302    1.3503 C.3     1  UNL1        0.0095
      3 C          63.4520   92.0362    2.5159 C.3     1  UNL1        0.0005
      4 C          63.1482   91.1422    3.6814 C.3     1  UNL1        0.0000
      5 C          62.0581   91.9683    3.0657 C.3     1  UNL1        0.0005
      6 C          60.9680   92.7945    2.4500 C.3     1  UNL1        0.0082
      7 C          61.2718   93.6885    1.2845 C.3     1  UNL1        0.0705
      8 N          63.0291   94.0810   -1.8173 N.am    1  UNL1       -0.2815
      9 C          62.9696   94.6503   -0.4308 C.2     1  UNL1        0.2261
     10 O          63.2139   96.1138   -0.2099 O.2     1  UNL1       -0.2748
     11 H          62.8687   93.1205   -1.9623 H       1  UNL1        0.1549
     12 C          65.6439   96.8498   -5.4749 C.3     1  UNL1        0.1538
     13 N          64.5348   96.2477   -4.6640 N.ar    1  UNL1       -0.2461
     14 C          64.6997   95.3337   -3.4861 C.ar    1  UNL1        0.1112
     15 C          63.3329   94.9750   -2.9828 C.ar    1  UNL1        0.0929
     16 C          62.3233   95.6674   -3.8497 C.ar    1  UNL1        0.1869
     17 N          63.0661   96.4540   -4.8887 N.ar    1  UNL1       -0.1639
     18 C          60.8326   95.5872   -3.7031 C.3     1  UNL1        0.4377
     19 F          59.3419   95.5070   -3.5565 F       1  UNL1       -0.1643
     20 F          60.9153   96.3766   -2.4304 F       1  UNL1       -0.1643
     21 F          60.7499   94.7977   -4.9759 F       1  UNL1       -0.1643
     22 C          60.1817   94.5147    0.6688 C.2     1  UNL1        0.1731
     23 O          59.9281   95.9087    1.1612 O.2     1  UNL1       -0.2913
     24 C          59.3451   93.9468   -0.4392 C.ar    1  UNL1        0.0347
     25 C          57.9390   94.4289   -0.6399 C.ar    1  UNL1        0.0029
     26 C          57.1024   93.8610   -1.7479 C.ar    1  UNL1        0.0016
     27 C          57.6720   92.8111   -2.6552 C.ar    1  UNL1        0.0171
     28 C          59.0782   92.3290   -2.4545 C.ar    1  UNL1        0.0016
     29 C          59.9147   92.8968   -1.3465 C.ar    1  UNL1        0.0029
     30 C          56.8354   92.2433   -3.7632 C.ar    1  UNL1        0.0754
     31 C          56.4627   92.9455   -5.0353 C.ar    1  UNL1        0.0409
     32 C          55.6216   92.0097   -5.8520 C.ar    1  UNL1        0.1214
     33 N          55.4745   90.7292   -5.0847 N.ar    1  UNL1       -0.1711
     34 N          56.2246   90.8736   -3.7938 N.ar    1  UNL1       -0.2757
     35 H          56.3025   90.1895   -3.0901 H       1  UNL1        0.1889
@<TRIPOS>BOND
     1    12    13    1
     2    13    14   ar
     3    14    15   ar
     4    15     8    1
     5     8     9   am
     6     9    10    2
     7     1     9    1
     8     1     2    1
     9     3     2    1
    10     3     4    1
    11     5     4    1
    12     5     6    1
    13     6     7    1
    14     7    22    1
    15    22    23    2
    16    22    24    1
    17    24    25   ar
    18    25    26   ar
    19    26    27   ar
    20    27    30    1
    21    30    31   ar
    22    31    32   ar
    23    32    33   ar
    24    33    34   ar
    25    27    28   ar
    26    28    29   ar
    27    15    16   ar
    28    16    18    1
    29    18    19    1
    30    18    20    1
    31    18    21    1
    32    16    17   ar
    33    17    13   ar
    34     7     1    1
    35    29    24   ar
    36     5     3    1
    37    34    30   ar
    38     8    11    1
    39    34    35    1
