@<TRIPOS>MOLECULE
*****
 43 47 0 0 0
SMALL
GASTEIGER

@<TRIPOS>ATOM
      1 C          64.5305   91.5256   12.2014 C.ar    1  UNL1        0.2443
      2 N          64.0085   90.5870   13.2487 N.ar    1  UNL1       -0.1953
      3 C          64.7063   90.4768   14.5720 C.ar    1  UNL1        0.1354
      4 C          65.9260   91.3052   14.8480 C.ar    1  UNL1        0.0359
      5 C          66.4479   92.2437   13.8008 C.ar    1  UNL1        0.0221
      6 C          65.7502   92.3539   12.4775 C.ar    1  UNL1        0.1023
      7 N          66.2722   93.2925   11.4303 N.pl3   1  UNL1       -0.3039
      8 C          65.9837   94.7612   11.5285 C.3     1  UNL1        0.0909
      9 C          66.5057   95.6997   10.4813 C.3     1  UNL1        0.0215
     10 C          67.3161   95.1695    9.3358 C.3     1  UNL1        0.0035
     11 C          67.6046   93.7009    9.2376 C.3     1  UNL1        0.0215
     12 C          67.0826   92.7624   10.2848 C.3     1  UNL1        0.0909
     13 N          64.1843   89.5383   15.6192 N.pl3   1  UNL1       -0.2955
     14 H          63.9962   89.8692   16.5271 H       1  UNL1        0.1537
     15 C          63.9490   88.0955   15.2830 C.ar    1  UNL1        0.0839
     16 C          64.2813   87.5805   13.9140 C.ar    1  UNL1        0.0190
     17 C          64.0459   86.1377   13.5779 C.ar    1  UNL1        0.0160
     18 C          63.4783   85.2099   14.6108 C.ar    1  UNL1        0.0510
     19 C          63.1461   85.7249   15.9799 C.ar    1  UNL1        0.0527
     20 C          63.3814   87.1677   16.3160 C.ar    1  UNL1        0.1532
     21 N          63.2430   83.7671   14.2747 N.pl3   1  UNL1       -0.3046
     22 C          64.2346   83.0221   13.4311 C.3     1  UNL1        0.1081
     23 C          63.9993   81.5794   13.0950 C.3     1  UNL1        0.0938
     24 N          62.7724   80.8815   13.6025 N.3     1  UNL1       -0.2686
     25 C          62.5371   79.4387   13.2664 C.3     1  UNL1        0.0897
     26 C          61.7808   81.6265   14.4462 C.3     1  UNL1        0.0938
     27 C          62.0161   83.0692   14.7823 C.3     1  UNL1        0.1081
     28 O          63.0492   87.6826   17.6851 O.3     1  UNL1       -0.4701
     29 C          62.6355   86.7280   18.7656 C.3     1  UNL1        0.2525
     30 O          63.8328   91.6358   10.8782 O.3     1  UNL1       -0.4350
     31 C          62.0328   88.2394    9.8911 C.ar    1  UNL1        0.0496
     32 C          63.1078   89.2197   10.2560 C.ar    1  UNL1        0.0519
     33 C          62.7577   90.6554   10.5133 C.ar    1  UNL1        0.1485
     34 C          61.3326   91.1108   10.4056 C.ar    1  UNL1        0.0373
     35 C          60.2575   90.1304   10.0407 C.ar    1  UNL1        0.0001
     36 C          60.6076   88.6947    9.7835 C.ar    1  UNL1       -0.0082
     37 C          59.5325   87.7144    9.4185 C.3     1  UNL1        0.0323
     38 C          62.0635   85.7582   10.6609 C.2     1  UNL1        0.2496
     39 O          61.3940   86.1483   11.9453 O.2     1  UNL1       -0.2698
     40 N          62.3828   86.8037    9.6338 N.am    1  UNL1       -0.2805
     41 H          62.8222   86.5476    8.7909 H       1  UNL1        0.1552
     42 C          63.7728   83.9641    9.8800 C.2     1  UNL1        0.0048
     43 C          62.4136   84.3225   10.4036 C.2     1  UNL1        0.0580
@<TRIPOS>BOND
     1    42    43    2
     2    43    38    1
     3    38    39    2
     4    38    40   am
     5    40    31    1
     6    31    32   ar
     7    32    33   ar
     8    33    30    1
     9    30     1    1
    10     1     2   ar
    11     2     3   ar
    12     3    13    1
    13    13    15    1
    14    15    16   ar
    15    16    17   ar
    16    17    18   ar
    17    18    21    1
    18    21    22    1
    19    22    23    1
    20    23    24    1
    21    24    25    1
    22    24    26    1
    23    26    27    1
    24    18    19   ar
    25    19    20   ar
    26    20    28    1
    27    28    29    1
    28     3     4   ar
    29     4     5   ar
    30     5     6   ar
    31     6     7    1
    32     7     8    1
    33     8     9    1
    34     9    10    1
    35    10    11    1
    36    11    12    1
    37    33    34   ar
    38    34    35   ar
    39    35    36   ar
    40    36    37    1
    41    36    31   ar
    42     6     1   ar
    43    12     7    1
    44    20    15   ar
    45    27    21    1
    46    40    41    1
    47    13    14    1
@<TRIPOS>MOLECULE
*****
 43 47 0 0 0
SMALL
GASTEIGER

@<TRIPOS>ATOM
      1 C          60.9430   88.0629    9.7711 C.ar    1  UNL1        0.2443
      2 N          60.1088   89.0441    9.0019 N.ar    1  UNL1       -0.1953
      3 C          59.4614   88.6302    7.7137 C.ar    1  UNL1        0.1354
      4 C          59.6480   87.2352    7.1947 C.ar    1  UNL1        0.0359
      5 C          60.4821   86.2542    7.9640 C.ar    1  UNL1        0.0221
      6 C          61.1296   86.6680    9.2522 C.ar    1  UNL1        0.1023
      7 N          61.9637   85.6869   10.0214 N.pl3   1  UNL1       -0.3039
      8 C          62.9384   84.8036    9.3005 C.3     1  UNL1        0.0909
      9 C          63.7724   83.8225   10.0698 C.3     1  UNL1        0.0215
     10 C          63.6319   83.7248   11.5600 C.3     1  UNL1        0.0035
     11 C          62.6572   84.6081   12.2809 C.3     1  UNL1        0.0215
     12 C          61.8232   85.5892   11.5116 C.3     1  UNL1        0.0909
     13 N          58.6273   89.6112    6.9444 N.pl3   1  UNL1       -0.2955
     14 H          57.6687   89.7079    7.1472 H       1  UNL1        0.1537
     15 C          59.2536   90.4450    5.8662 C.ar    1  UNL1        0.0839
     16 C          60.6945   90.2412    5.5023 C.ar    1  UNL1        0.0190
     17 C          61.3208   91.0751    4.4240 C.ar    1  UNL1        0.0160
     18 C          60.5063   92.1125    3.7098 C.ar    1  UNL1        0.0510
     19 C          59.0654   92.3163    4.0737 C.ar    1  UNL1        0.0527
     20 C          58.4391   91.4825    5.1519 C.ar    1  UNL1        0.1532
     21 N          61.1326   92.9463    2.6315 N.pl3   1  UNL1       -0.3046
     22 C          60.3038   93.9443    1.8785 C.3     1  UNL1        0.1081
     23 C          60.9300   94.7781    0.8003 C.3     1  UNL1        0.0938
     24 N          62.3851   94.6139    0.4752 N.3     1  UNL1       -0.2686
     25 C          63.0114   95.4477   -0.6031 C.3     1  UNL1        0.0897
     26 C          63.2139   93.6159    1.2282 C.3     1  UNL1        0.0938
     27 C          62.5877   92.7822    2.3064 C.3     1  UNL1        0.1081
     28 O          56.9982   91.6862    5.5159 O.3     1  UNL1       -0.4701
     29 C          55.9338   90.8623    4.8541 C.3     1  UNL1        0.2525
     30 O          61.5904   88.4768   11.0594 O.3     1  UNL1       -0.4350
     31 C          64.4281   90.9739   12.2686 C.ar    1  UNL1        0.0496
     32 C          63.4714   89.8188   12.2472 C.ar    1  UNL1        0.0519
     33 C          62.5471   89.6320   11.0807 C.ar    1  UNL1        0.1485
     34 C          62.5794   90.6003    9.9356 C.ar    1  UNL1        0.0373
     35 C          63.5360   91.7554    9.9570 C.ar    1  UNL1        0.0001
     36 C          64.4604   91.9422   11.1235 C.ar    1  UNL1       -0.0082
     37 C          65.4171   93.0974   11.1448 C.3     1  UNL1        0.0323
     38 C          64.7921   91.4219   14.8017 C.2     1  UNL1        0.2496
     39 O          63.3073   91.4962   15.0019 O.2     1  UNL1       -0.2698
     40 N          65.3524   91.1607   13.4351 N.am    1  UNL1       -0.2805
     41 H          66.3269   91.1119   13.3037 H       1  UNL1        0.1552
     42 C          66.6696   92.7667   15.9918 C.2     1  UNL1        0.0048
     43 C          65.7164   91.6087   15.9682 C.2     1  UNL1        0.0580
@<TRIPOS>BOND
     1    42    43    2
     2    43    38    1
     3    38    39    2
     4    38    40   am
     5    40    31    1
     6    31    32   ar
     7    32    33   ar
     8    33    30    1
     9    30     1    1
    10     1     2   ar
    11     2     3   ar
    12     3    13    1
    13    13    15    1
    14    15    16   ar
    15    16    17   ar
    16    17    18   ar
    17    18    21    1
    18    21    22    1
    19    22    23    1
    20    23    24    1
    21    24    25    1
    22    24    26    1
    23    26    27    1
    24    18    19   ar
    25    19    20   ar
    26    20    28    1
    27    28    29    1
    28     3     4   ar
    29     4     5   ar
    30     5     6   ar
    31     6     7    1
    32     7     8    1
    33     8     9    1
    34     9    10    1
    35    10    11    1
    36    11    12    1
    37    33    34   ar
    38    34    35   ar
    39    35    36   ar
    40    36    37    1
    41    36    31   ar
    42     6     1   ar
    43    12     7    1
    44    20    15   ar
    45    27    21    1
    46    40    41    1
    47    13    14    1
@<TRIPOS>MOLECULE
*****
 43 47 0 0 0
SMALL
GASTEIGER

@<TRIPOS>ATOM
      1 C          62.3786   86.6048   10.3184 C.ar    1  UNL1        0.2443
      2 N          62.3870   87.5709   11.4658 N.ar    1  UNL1       -0.1953
      3 C          61.5257   88.7981   11.4193 C.ar    1  UNL1        0.1354
      4 C          60.6561   89.0592   10.2253 C.ar    1  UNL1        0.0359
      5 C          60.6477   88.0931    9.0779 C.ar    1  UNL1        0.0221
      6 C          61.5090   86.8659    9.1244 C.ar    1  UNL1        0.1023
      7 N          61.5006   85.8997    7.9769 N.pl3   1  UNL1       -0.3039
      8 C          62.7813   85.2659    7.5208 C.3     1  UNL1        0.0909
      9 C          62.7729   84.2999    6.3734 C.3     1  UNL1        0.0215
     10 C          61.4838   83.9676    5.6821 C.3     1  UNL1        0.0035
     11 C          60.2031   84.6015    6.1383 C.3     1  UNL1        0.0215
     12 C          60.2115   85.5675    7.2857 C.3     1  UNL1        0.0909
     13 N          61.5341   89.7642   12.5667 N.pl3   1  UNL1       -0.2955
     14 H          60.6923   89.9950   13.0220 H       1  UNL1        0.1537
     15 C          62.8250   90.3786   13.0203 C.ar    1  UNL1        0.0839
     16 C          63.6826   91.1283   12.0443 C.ar    1  UNL1        0.0190
     17 C          64.9736   91.7428   12.4980 C.ar    1  UNL1        0.0160
     18 C          65.4070   91.6076   13.9277 C.ar    1  UNL1        0.0510
     19 C          64.5494   90.8579   14.9037 C.ar    1  UNL1        0.0527
     20 C          63.2585   90.2435   14.4500 C.ar    1  UNL1        0.1532
     21 N          66.6980   92.2220   14.3814 N.pl3   1  UNL1       -0.3046
     22 C          66.7121   93.1578   15.5536 C.3     1  UNL1        0.1081
     23 C          68.0030   93.7723   16.0073 C.3     1  UNL1        0.0938
     24 N          69.2799   93.4510   15.2888 N.3     1  UNL1       -0.2686
     25 C          70.5709   94.0654   15.7425 C.3     1  UNL1        0.0897
     26 C          69.2658   92.5152   14.1166 C.3     1  UNL1        0.0938
     27 C          67.9749   91.9007   13.6629 C.3     1  UNL1        0.1081
     28 O          62.4009   89.4938   15.4260 O.3     1  UNL1       -0.4701
     29 C          62.8997   89.2323   16.8162 C.3     1  UNL1        0.2525
     30 O          63.2399   85.3775   10.3649 O.3     1  UNL1       -0.4350
     31 C          62.7640   83.6058   13.8840 C.ar    1  UNL1        0.0496
     32 C          63.0227   84.6649   12.8539 C.ar    1  UNL1        0.0519
     33 C          62.9812   84.3183   11.3951 C.ar    1  UNL1        0.1485
     34 C          62.6810   82.9126   10.9664 C.ar    1  UNL1        0.0373
     35 C          62.4223   81.8535   11.9966 C.ar    1  UNL1        0.0001
     36 C          62.4638   82.2001   13.4554 C.ar    1  UNL1       -0.0082
     37 C          62.2051   81.1408   14.4856 C.3     1  UNL1        0.0323
     38 C          63.3707   85.2695   15.7850 C.2     1  UNL1        0.2496
     39 O          63.8945   86.2402   14.7684 O.2     1  UNL1       -0.2698
     40 N          62.8054   83.9524   15.3429 N.am    1  UNL1       -0.2805
     41 H          62.4617   83.3153   16.0101 H       1  UNL1        0.1552
     42 C          62.2963   86.4080   17.8586 C.2     1  UNL1        0.0048
     43 C          63.4122   85.6161   17.2439 C.2     1  UNL1        0.0580
@<TRIPOS>BOND
     1    42    43    2
     2    43    38    1
     3    38    39    2
     4    38    40   am
     5    40    31    1
     6    31    32   ar
     7    32    33   ar
     8    33    30    1
     9    30     1    1
    10     1     2   ar
    11     2     3   ar
    12     3    13    1
    13    13    15    1
    14    15    16   ar
    15    16    17   ar
    16    17    18   ar
    17    18    21    1
    18    21    22    1
    19    22    23    1
    20    23    24    1
    21    24    25    1
    22    24    26    1
    23    26    27    1
    24    18    19   ar
    25    19    20   ar
    26    20    28    1
    27    28    29    1
    28     3     4   ar
    29     4     5   ar
    30     5     6   ar
    31     6     7    1
    32     7     8    1
    33     8     9    1
    34     9    10    1
    35    10    11    1
    36    11    12    1
    37    33    34   ar
    38    34    35   ar
    39    35    36   ar
    40    36    37    1
    41    36    31   ar
    42     6     1   ar
    43    12     7    1
    44    20    15   ar
    45    27    21    1
    46    40    41    1
    47    13    14    1
@<TRIPOS>MOLECULE
*****
 43 47 0 0 0
SMALL
GASTEIGER

@<TRIPOS>ATOM
      1 C          62.2974   86.4390   10.2920 C.ar    1  UNL1        0.2443
      2 N          62.2589   87.3667   11.4702 N.ar    1  UNL1       -0.1953
      3 C          61.3839   88.5846   11.4374 C.ar    1  UNL1        0.1354
      4 C          60.5474   88.8748   10.2265 C.ar    1  UNL1        0.0359
      5 C          60.5860   87.9471    9.0485 C.ar    1  UNL1        0.0221
      6 C          61.4610   86.7292    9.0812 C.ar    1  UNL1        0.1023
      7 N          61.4995   85.8014    7.9031 N.pl3   1  UNL1       -0.3039
      8 C          60.2288   85.4342    7.1958 C.3     1  UNL1        0.0909
      9 C          60.2673   84.5065    6.0177 C.3     1  UNL1        0.0215
     10 C          61.5767   83.9460    5.5470 C.3     1  UNL1        0.0035
     11 C          62.8474   84.3132    6.2543 C.3     1  UNL1        0.0215
     12 C          62.8088   85.2409    7.4324 C.3     1  UNL1        0.0909
     13 N          61.3453   89.5124   12.6154 N.pl3   1  UNL1       -0.2955
     14 H          60.4888   89.7094   13.0590 H       1  UNL1        0.1537
     15 C          62.6118   90.1399   13.1176 C.ar    1  UNL1        0.0839
     16 C          63.0806   89.8674   14.5161 C.ar    1  UNL1        0.0190
     17 C          64.3471   90.4949   15.0183 C.ar    1  UNL1        0.0160
     18 C          65.1448   91.3950   14.1219 C.ar    1  UNL1        0.0510
     19 C          64.6760   91.6675   12.7233 C.ar    1  UNL1        0.0527
     20 C          63.4095   91.0400   12.2212 C.ar    1  UNL1        0.1532
     21 N          66.4114   92.0226   14.6240 N.pl3   1  UNL1       -0.3046
     22 C          67.6650   91.9410   13.8044 C.3     1  UNL1        0.1081
     23 C          68.9315   92.5685   14.3065 C.3     1  UNL1        0.0938
     24 N          68.9443   93.2776   15.6282 N.3     1  UNL1       -0.2686
     25 C          70.2109   93.9052   16.1304 C.3     1  UNL1        0.0897
     26 C          67.6907   93.3592   16.4478 C.3     1  UNL1        0.0938
     27 C          66.4242   92.7317   15.9457 C.3     1  UNL1        0.1081
     28 O          62.9408   91.3125   10.8226 O.3     1  UNL1       -0.4701
     29 C          63.8450   92.0117    9.8513 C.3     1  UNL1        0.2525
     30 O          63.1724   85.2211   10.3248 O.3     1  UNL1       -0.4350
     31 C          62.5063   83.5047   13.8406 C.ar    1  UNL1        0.0496
     32 C          62.7284   84.5598   12.7978 C.ar    1  UNL1        0.0519
     33 C          62.9503   84.1659   11.3676 C.ar    1  UNL1        0.1485
     34 C          62.9501   82.7168   10.9801 C.ar    1  UNL1        0.0373
     35 C          62.7281   81.6617   12.0228 C.ar    1  UNL1        0.0001
     36 C          62.5062   82.0556   13.4531 C.ar    1  UNL1       -0.0082
     37 C          62.2841   81.0004   14.4958 C.3     1  UNL1        0.0323
     38 C          62.9077   85.1525   15.8087 C.2     1  UNL1        0.2496
     39 O          63.7528   86.0125   14.9164 O.2     1  UNL1       -0.2698
     40 N          62.2844   83.8986   15.2708 N.am    1  UNL1       -0.2805
     41 H          61.7297   83.3342   15.8564 H       1  UNL1        0.1552
     42 C          62.7194   86.9936   17.6322 C.2     1  UNL1        0.0048
     43 C          62.6857   85.5464   17.2390 C.2     1  UNL1        0.0580
@<TRIPOS>BOND
     1    42    43    2
     2    43    38    1
     3    38    39    2
     4    38    40   am
     5    40    31    1
     6    31    32   ar
     7    32    33   ar
     8    33    30    1
     9    30     1    1
    10     1     2   ar
    11     2     3   ar
    12     3    13    1
    13    13    15    1
    14    15    16   ar
    15    16    17   ar
    16    17    18   ar
    17    18    21    1
    18    21    22    1
    19    22    23    1
    20    23    24    1
    21    24    25    1
    22    24    26    1
    23    26    27    1
    24    18    19   ar
    25    19    20   ar
    26    20    28    1
    27    28    29    1
    28     3     4   ar
    29     4     5   ar
    30     5     6   ar
    31     6     7    1
    32     7     8    1
    33     8     9    1
    34     9    10    1
    35    10    11    1
    36    11    12    1
    37    33    34   ar
    38    34    35   ar
    39    35    36   ar
    40    36    37    1
    41    36    31   ar
    42     6     1   ar
    43    12     7    1
    44    20    15   ar
    45    27    21    1
    46    40    41    1
    47    13    14    1
