@<TRIPOS>MOLECULE
*****
 30 33 0 0 0
SMALL
GASTEIGER

@<TRIPOS>ATOM
      1 C          63.0760   89.1497   12.2502 C.3     1  UNL1        0.2246
      2 C          63.6866   88.3580   13.3683 C.2     1  UNL1        0.0436
      3 C          64.4447   89.0586   14.4566 C.2     1  UNL1        0.0288
      4 C          64.5921   90.5510   14.4268 C.2     1  UNL1        0.0896
      5 N          63.9815   91.3428   13.3086 N.am    1  UNL1       -0.1770
      6 C          63.2234   90.6421   12.2204 C.2     1  UNL1        0.2627
      7 O          62.6128   91.4339   11.1022 O.2     1  UNL1       -0.2719
      8 C          62.8765   85.0207    8.0080 C.3     1  UNL1        0.0312
      9 C          61.6856   85.8923    8.2764 C.2     1  UNL1        0.0124
     10 C          60.4337   85.7214    7.4681 C.2     1  UNL1       -0.0038
     11 C          59.2428   86.5930    7.7365 C.2     1  UNL1        0.0031
     12 C          59.3039   87.6356    8.8132 C.2     1  UNL1        0.0468
     13 C          60.5558   87.8066    9.6214 C.2     1  UNL1        0.2234
     14 N          60.9088   88.7423   10.7394 N.2     1  UNL1       -0.0378
     15 C          62.3179   88.4490   11.1619 C.2     1  UNL1        0.3605
     16 N          62.8357   87.3320   10.3051 N.2     1  UNL1       -0.0547
     17 C          61.7467   86.9349    9.3530 C.3     1  UNL1        0.2975
     18 N          63.5391   86.8655   13.3982 N.pl3   1  UNL1       -0.3329
     19 H          63.0084   86.4093   12.7058 H       1  UNL1        0.1466
     20 C          64.2004   86.0681   14.4831 C.3     1  UNL1        0.1211
     21 C          64.8632   84.7626   14.1566 C.3     1  UNL1        0.1522
     22 O          66.2981   84.5360   14.5302 O.3     1  UNL1       -0.3783
     23 H          66.6459   85.3264   14.9720 H       1  UNL1        0.2109
     24 C          64.0911   83.6839   13.4566 C.ar    1  UNL1        0.0067
     25 C          64.3883   83.3588   12.0227 C.ar    1  UNL1       -0.0018
     26 C          63.6162   82.2800   11.3226 C.ar    1  UNL1        0.0006
     27 C          62.5468   81.5263   12.0564 C.ar    1  UNL1        0.0114
     28 C          62.2496   81.8514   13.4903 C.ar    1  UNL1        0.0574
     29 CL         61.1803   81.0978   14.2241 Cl      1  UNL1       -0.0823
     30 C          63.0217   82.9302   14.1904 C.ar    1  UNL1        0.0095
@<TRIPOS>BOND
     1     8     9    1
     2     9    10    2
     3    10    11    1
     4    11    12    2
     5    12    13    1
     6    13    14    2
     7    14    15    1
     8    15     1    1
     9     1     2    1
    10     2    18    1
    11    18    20    1
    12    20    21    1
    13    21    22    1
    14    21    24    1
    15    24    25   ar
    16    25    26   ar
    17    26    27   ar
    18    27    28   ar
    19    28    29    1
    20    28    30   ar
    21     2     3    2
    22     3     4    1
    23     4     5    2
    24     5     6    1
    25     6     7    2
    26    15    16    2
    27    16    17    1
    28    17     9    1
    29    17    13    1
    30     6     1    1
    31    30    24   ar
    32    18    19    1
    33    22    23    1
@<TRIPOS>MOLECULE
*****
 30 33 0 0 0
SMALL
GASTEIGER

@<TRIPOS>ATOM
      1 C          61.3075   88.0623    9.7979 C.3     1  UNL1        0.2246
      2 C          61.5752   86.6458    9.3836 C.2     1  UNL1        0.0436
      3 C          60.6973   85.9841    8.3631 C.2     1  UNL1        0.0288
      4 C          59.5516   86.7390    7.7569 C.2     1  UNL1        0.0896
      5 N          59.2838   88.1555    8.1712 N.am    1  UNL1       -0.1770
      6 C          60.1618   88.8172    9.1917 C.2     1  UNL1        0.2627
      7 O          59.8940   90.2338    9.6060 O.2     1  UNL1       -0.2719
      8 C          64.2701   87.8085   14.9207 C.3     1  UNL1        0.0312
      9 C          64.2835   89.0618   14.0966 C.2     1  UNL1        0.0124
     10 C          65.0505   90.2614   14.5683 C.2     1  UNL1       -0.0038
     11 C          65.0639   91.5147   13.7442 C.2     1  UNL1        0.0031
     12 C          64.3103   91.5684   12.4484 C.2     1  UNL1        0.0468
     13 C          63.5432   90.3688   11.9767 C.2     1  UNL1        0.2234
     14 N          62.7124   90.1268   10.7515 N.2     1  UNL1       -0.0378
     15 C          62.1855   88.7239   10.8184 C.2     1  UNL1        0.3605
     16 N          62.6907   88.0990   12.0849 N.2     1  UNL1       -0.0547
     17 C          63.5299   89.1155   12.8008 C.3     1  UNL1        0.2975
     18 N          62.7210   85.8908    9.9897 N.pl3   1  UNL1       -0.3329
     19 H          63.3204   86.3370   10.6307 H       1  UNL1        0.1466
     20 C          62.9534   84.4560    9.6193 C.3     1  UNL1        0.1211
     21 C          63.7014   83.5518   10.5538 C.3     1  UNL1        0.1522
     22 O          64.9014   82.7958   10.0656 O.3     1  UNL1       -0.3783
     23 H          65.0559   83.0031    9.1307 H       1  UNL1        0.2109
     24 C          63.2494   83.4038   11.9763 C.ar    1  UNL1        0.0067
     25 C          63.6317   84.4355   12.9959 C.ar    1  UNL1       -0.0018
     26 C          63.1797   84.2875   14.4186 C.ar    1  UNL1        0.0006
     27 C          62.3454   83.1078   14.8216 C.ar    1  UNL1        0.0114
     28 C          61.9632   82.0761   13.8019 C.ar    1  UNL1        0.0574
     29 CL         61.1289   80.8964   14.2049 Cl      1  UNL1       -0.0823
     30 C          62.4152   82.2241   12.3794 C.ar    1  UNL1        0.0095
@<TRIPOS>BOND
     1     8     9    1
     2     9    10    2
     3    10    11    1
     4    11    12    2
     5    12    13    1
     6    13    14    2
     7    14    15    1
     8    15     1    1
     9     1     2    1
    10     2    18    1
    11    18    20    1
    12    20    21    1
    13    21    22    1
    14    21    24    1
    15    24    25   ar
    16    25    26   ar
    17    26    27   ar
    18    27    28   ar
    19    28    29    1
    20    28    30   ar
    21     2     3    2
    22     3     4    1
    23     4     5    2
    24     5     6    1
    25     6     7    2
    26    15    16    2
    27    16    17    1
    28    17     9    1
    29    17    13    1
    30     6     1    1
    31    30    24   ar
    32    18    19    1
    33    22    23    1
@<TRIPOS>MOLECULE
*****
 30 33 0 0 0
SMALL
GASTEIGER

@<TRIPOS>ATOM
      1 C          63.8792   90.5363   13.5980 C.3     1  UNL1        0.2246
      2 C          63.7276   90.3032   15.0720 C.2     1  UNL1        0.0436
      3 C          64.4707   91.1663   16.0482 C.2     1  UNL1        0.0288
      4 C          65.3654   92.2625   15.5503 C.2     1  UNL1        0.0896
      5 N          65.5169   92.4956   14.0764 N.am    1  UNL1       -0.1770
      6 C          64.7738   91.6325   13.1002 C.2     1  UNL1        0.2627
      7 O          64.9255   91.8656   11.6262 O.2     1  UNL1       -0.2719
      8 C          62.5901   85.1525   11.4916 C.3     1  UNL1        0.0312
      9 C          61.9695   86.3750   10.8830 C.2     1  UNL1        0.0124
     10 C          61.0158   86.2388    9.7333 C.2     1  UNL1       -0.0038
     11 C          60.3952   87.4613    9.1248 C.2     1  UNL1        0.0031
     12 C          60.7285   88.8201    9.6658 C.2     1  UNL1        0.0468
     13 C          61.6823   88.9562   10.8154 C.2     1  UNL1        0.2234
     14 N          62.1973   90.1549   11.5558 N.2     1  UNL1       -0.0378
     15 C          63.1361   89.6732   12.6219 C.2     1  UNL1        0.3605
     16 N          63.2013   88.1768   12.5405 N.2     1  UNL1       -0.0547
     17 C          62.3028   87.7337   11.4240 C.3     1  UNL1        0.2975
     18 N          62.8329   89.2070   15.5699 N.pl3   1  UNL1       -0.3329
     19 H          61.9783   89.0248   15.1163 H       1  UNL1        0.1466
     20 C          63.2402   88.3883   16.7589 C.3     1  UNL1        0.1211
     21 C          62.8005   86.9585   16.8713 C.3     1  UNL1        0.1522
     22 O          61.7797   86.5663   17.8980 O.3     1  UNL1       -0.3783
     23 H          61.5099   87.3502   18.4016 H       1  UNL1        0.2109
     24 C          63.3815   85.9211   15.9570 C.ar    1  UNL1        0.0067
     25 C          64.6947   86.1717   15.2767 C.ar    1  UNL1       -0.0018
     26 C          65.2758   85.1342   14.3623 C.ar    1  UNL1        0.0006
     27 C          64.5437   83.8461   14.1283 C.ar    1  UNL1        0.0114
     28 C          63.2304   83.5955   14.8086 C.ar    1  UNL1        0.0574
     29 CL         62.4983   82.3074   14.5745 Cl      1  UNL1       -0.0823
     30 C          62.6494   84.6329   15.7229 C.ar    1  UNL1        0.0095
@<TRIPOS>BOND
     1     8     9    1
     2     9    10    2
     3    10    11    1
     4    11    12    2
     5    12    13    1
     6    13    14    2
     7    14    15    1
     8    15     1    1
     9     1     2    1
    10     2    18    1
    11    18    20    1
    12    20    21    1
    13    21    22    1
    14    21    24    1
    15    24    25   ar
    16    25    26   ar
    17    26    27   ar
    18    27    28   ar
    19    28    29    1
    20    28    30   ar
    21     2     3    2
    22     3     4    1
    23     4     5    2
    24     5     6    1
    25     6     7    2
    26    15    16    2
    27    16    17    1
    28    17     9    1
    29    17    13    1
    30     6     1    1
    31    30    24   ar
    32    18    19    1
    33    22    23    1
@<TRIPOS>MOLECULE
*****
 30 33 0 0 0
SMALL
GASTEIGER

@<TRIPOS>ATOM
      1 C          63.0227   85.0216   12.7546 C.3     1  UNL1        0.2246
      2 C          63.8051   85.8350   13.7425 C.2     1  UNL1        0.0436
      3 C          64.5629   85.1529   14.8427 C.2     1  UNL1        0.0288
      4 C          64.5383   83.6573   14.9550 C.2     1  UNL1        0.0896
      5 N          63.7559   82.8439   13.9670 N.am    1  UNL1       -0.1770
      6 C          62.9981   83.5260   12.8668 C.2     1  UNL1        0.2627
      7 O          62.2157   82.7125   11.8788 O.2     1  UNL1       -0.2719
      8 C          60.0873   89.7601   10.7511 C.3     1  UNL1        0.0312
      9 C          60.2648   88.5521    9.8798 C.2     1  UNL1        0.0124
     10 C          59.6973   88.5388    8.4914 C.2     1  UNL1       -0.0038
     11 C          59.8749   87.3308    7.6201 C.2     1  UNL1        0.0031
     12 C          60.6200   86.1360    8.1373 C.2     1  UNL1        0.0468
     13 C          61.1874   86.1493    9.5257 C.2     1  UNL1        0.2234
     14 N          61.9631   85.1273   10.3028 N.2     1  UNL1       -0.0378
     15 C          62.2649   85.7037   11.6544 C.2     1  UNL1        0.3605
     16 N          61.6758   87.0819   11.7125 N.2     1  UNL1       -0.0547
     17 C          61.0099   87.3574   10.3970 C.3     1  UNL1        0.2975
     18 N          63.8297   87.3307   13.6303 N.pl3   1  UNL1       -0.3329
     19 H          63.5698   87.7653   12.7860 H       1  UNL1        0.1466
     20 C          64.2502   88.1640   14.8044 C.3     1  UNL1        0.1211
     21 C          63.9036   89.6227   14.8514 C.3     1  UNL1        0.1522
     22 O          63.1399   90.1749   16.0184 O.3     1  UNL1       -0.3783
     23 H          62.9505   89.4614   16.6477 H       1  UNL1        0.2109
     24 C          64.3206   90.5291   13.7314 C.ar    1  UNL1        0.0067
     25 C          65.5114   91.4261   13.8963 C.ar    1  UNL1       -0.0018
     26 C          65.9285   92.3326   12.7763 C.ar    1  UNL1        0.0006
     27 C          65.1547   92.3420   11.4913 C.ar    1  UNL1        0.0114
     28 C          63.9638   91.4450   11.3264 C.ar    1  UNL1        0.0574
     29 CL         63.1899   91.4544   10.0415 Cl      1  UNL1       -0.0823
     30 C          63.5467   90.5386   12.4465 C.ar    1  UNL1        0.0095
@<TRIPOS>BOND
     1     8     9    1
     2     9    10    2
     3    10    11    1
     4    11    12    2
     5    12    13    1
     6    13    14    2
     7    14    15    1
     8    15     1    1
     9     1     2    1
    10     2    18    1
    11    18    20    1
    12    20    21    1
    13    21    22    1
    14    21    24    1
    15    24    25   ar
    16    25    26   ar
    17    26    27   ar
    18    27    28   ar
    19    28    29    1
    20    28    30   ar
    21     2     3    2
    22     3     4    1
    23     4     5    2
    24     5     6    1
    25     6     7    2
    26    15    16    2
    27    16    17    1
    28    17     9    1
    29    17    13    1
    30     6     1    1
    31    30    24   ar
    32    18    19    1
    33    22    23    1
@<TRIPOS>MOLECULE
*****
 30 33 0 0 0
SMALL
GASTEIGER

@<TRIPOS>ATOM
      1 C          61.1855   87.1406    9.8610 C.3     1  UNL1        0.2246
      2 C          61.0835   88.4801   10.5282 C.2     1  UNL1        0.0436
      3 C          60.3801   89.6105    9.8372 C.2     1  UNL1        0.0288
      4 C          59.7787   89.4014    8.4791 C.2     1  UNL1        0.0896
      5 N          59.8808   88.0619    7.8119 N.am    1  UNL1       -0.1770
      6 C          60.5842   86.9315    8.5029 C.2     1  UNL1        0.2627
      7 O          60.6862   85.5919    7.8356 O.2     1  UNL1       -0.2719
      8 C          62.3182   84.0954   14.8136 C.3     1  UNL1        0.0312
      9 C          62.9494   83.6935   13.5136 C.2     1  UNL1        0.0124
     10 C          63.8741   82.5137   13.4619 C.2     1  UNL1       -0.0038
     11 C          64.5053   82.1118   12.1619 C.2     1  UNL1        0.0031
     12 C          64.2117   82.8898   10.9135 C.2     1  UNL1        0.0468
     13 C          63.2870   84.0697   10.9652 C.2     1  UNL1        0.2234
     14 N          62.8130   85.0206    9.9063 N.2     1  UNL1       -0.0378
     15 C          61.8889   86.0102   10.5519 C.2     1  UNL1        0.3605
     16 N          61.7918   85.6708   12.0098 N.2     1  UNL1       -0.0547
     17 C          62.6558   84.4716   12.2652 C.3     1  UNL1        0.2975
     18 N          61.6849   88.6893   11.8864 N.pl3   1  UNL1       -0.3329
     19 H          61.1996   88.3939   12.6904 H       1  UNL1        0.1466
     20 C          63.0256   89.3485   12.0195 C.3     1  UNL1        0.1211
     21 C          63.3577   90.1301   13.2561 C.3     1  UNL1        0.1522
     22 O          62.4942   90.0058   14.4763 O.3     1  UNL1       -0.3783
     23 H          61.7704   89.3850   14.2983 H       1  UNL1        0.2109
     24 C          64.5532   91.0358   13.2724 C.ar    1  UNL1        0.0067
     25 C          64.7800   91.9987   12.1448 C.ar    1  UNL1       -0.0018
     26 C          65.9755   92.9046   12.1611 C.ar    1  UNL1        0.0006
     27 C          66.9442   92.8475   13.3049 C.ar    1  UNL1        0.0114
     28 C          66.7173   91.8846   14.4325 C.ar    1  UNL1        0.0574
     29 CL         67.6860   91.8275   15.5764 Cl      1  UNL1       -0.0823
     30 C          65.5219   90.9788   14.4162 C.ar    1  UNL1        0.0095
@<TRIPOS>BOND
     1     8     9    1
     2     9    10    2
     3    10    11    1
     4    11    12    2
     5    12    13    1
     6    13    14    2
     7    14    15    1
     8    15     1    1
     9     1     2    1
    10     2    18    1
    11    18    20    1
    12    20    21    1
    13    21    22    1
    14    21    24    1
    15    24    25   ar
    16    25    26   ar
    17    26    27   ar
    18    27    28   ar
    19    28    29    1
    20    28    30   ar
    21     2     3    2
    22     3     4    1
    23     4     5    2
    24     5     6    1
    25     6     7    2
    26    15    16    2
    27    16    17    1
    28    17     9    1
    29    17    13    1
    30     6     1    1
    31    30    24   ar
    32    18    19    1
    33    22    23    1
@<TRIPOS>MOLECULE
*****
 30 33 0 0 0
SMALL
GASTEIGER

@<TRIPOS>ATOM
      1 C          63.0157   84.8121   12.8355 C.3     1  UNL1        0.2246
      2 C          63.7687   85.6836   13.7964 C.2     1  UNL1        0.0436
      3 C          64.4996   85.0680   14.9526 C.2     1  UNL1        0.0288
      4 C          64.4776   83.5810   15.1479 C.2     1  UNL1        0.0896
      5 N          63.7246   82.7095   14.1869 N.am    1  UNL1       -0.1770
      6 C          62.9936   83.3251   13.0307 C.2     1  UNL1        0.2627
      7 O          62.2406   82.4535   12.0697 O.2     1  UNL1       -0.2719
      8 C          61.8495   84.9689    7.0303 C.3     1  UNL1        0.0312
      9 C          61.1882   85.9385    7.9645 C.2     1  UNL1        0.0124
     10 C          60.2246   86.9563    7.4303 C.2     1  UNL1       -0.0038
     11 C          59.5634   87.9258    8.3645 C.2     1  UNL1        0.0031
     12 C          59.8657   87.8775    9.8329 C.2     1  UNL1        0.0468
     13 C          60.8293   86.8597   10.3671 C.2     1  UNL1        0.2234
     14 N          61.3202   86.5738   11.7554 N.2     1  UNL1       -0.0378
     15 C          62.2848   85.4277   11.6792 C.2     1  UNL1        0.3605
     16 N          62.3901   85.0051   10.2438 N.2     1  UNL1       -0.0547
     17 C          61.4906   85.8902    9.4329 C.3     1  UNL1        0.2975
     18 N          63.7908   87.1707   13.6012 N.pl3   1  UNL1       -0.3329
     19 H          63.4622   87.5616   12.7595 H       1  UNL1        0.1466
     20 C          64.3134   88.0622   14.6884 C.3     1  UNL1        0.1211
     21 C          63.7945   89.4631   14.8240 C.3     1  UNL1        0.1522
     22 O          62.6102   89.7425   15.7011 O.3     1  UNL1       -0.3783
     23 H          62.3034   88.9149   16.1034 H       1  UNL1        0.2109
     24 C          64.4598   90.5844   14.0825 C.ar    1  UNL1        0.0067
     25 C          64.0542   90.8959   12.6724 C.ar    1  UNL1       -0.0018
     26 C          64.7195   92.0173   11.9308 C.ar    1  UNL1        0.0006
     27 C          65.7906   92.8271   12.5994 C.ar    1  UNL1        0.0114
     28 C          66.1962   92.5156   14.0096 C.ar    1  UNL1        0.0574
     29 CL         67.2673   93.3255   14.6782 Cl      1  UNL1       -0.0823
     30 C          65.5309   91.3943   14.7511 C.ar    1  UNL1        0.0095
@<TRIPOS>BOND
     1     8     9    1
     2     9    10    2
     3    10    11    1
     4    11    12    2
     5    12    13    1
     6    13    14    2
     7    14    15    1
     8    15     1    1
     9     1     2    1
    10     2    18    1
    11    18    20    1
    12    20    21    1
    13    21    22    1
    14    21    24    1
    15    24    25   ar
    16    25    26   ar
    17    26    27   ar
    18    27    28   ar
    19    28    29    1
    20    28    30   ar
    21     2     3    2
    22     3     4    1
    23     4     5    2
    24     5     6    1
    25     6     7    2
    26    15    16    2
    27    16    17    1
    28    17     9    1
    29    17    13    1
    30     6     1    1
    31    30    24   ar
    32    18    19    1
    33    22    23    1
@<TRIPOS>MOLECULE
*****
 30 33 0 0 0
SMALL
GASTEIGER

@<TRIPOS>ATOM
      1 C          64.3961   90.6683   13.1096 C.3     1  UNL1        0.2246
      2 C          63.5072   90.8243   11.9115 C.2     1  UNL1        0.0436
      3 C          63.8242   91.8580   10.8718 C.2     1  UNL1        0.0288
      4 C          65.0302   92.7357   11.0302 C.2     1  UNL1        0.0896
      5 N          65.9192   92.5797   12.2283 N.am    1  UNL1       -0.1770
      6 C          65.6021   91.5460   13.2679 C.2     1  UNL1        0.2627
      7 O          66.4911   91.3900   14.4660 O.2     1  UNL1       -0.2719
      8 C          64.2992   84.9944   14.8074 C.3     1  UNL1        0.0312
      9 C          63.8079   86.0716   15.7285 C.2     1  UNL1        0.0124
     10 C          63.2876   85.7149   17.0894 C.2     1  UNL1       -0.0038
     11 C          62.7963   86.7921   18.0105 C.2     1  UNL1        0.0031
     12 C          62.8252   88.2258   17.5706 C.2     1  UNL1        0.0468
     13 C          63.3455   88.5824   16.2097 C.2     1  UNL1        0.2234
     14 N          63.4952   89.8984   15.5055 N.2     1  UNL1       -0.0378
     15 C          64.0790   89.6346   14.1492 C.2     1  UNL1        0.3605
     16 N          64.2901   88.1556   14.0152 N.2     1  UNL1       -0.0547
     17 C          63.8368   87.5053   15.2886 C.3     1  UNL1        0.2975
     18 N          62.3011   89.9465   11.7531 N.pl3   1  UNL1       -0.3329
     19 H          61.5364   90.0455   12.3652 H       1  UNL1        0.1466
     20 C          62.2601   88.9181   10.6620 C.3     1  UNL1        0.1211
     21 C          61.5623   87.6099   10.8902 C.3     1  UNL1        0.1522
     22 O          60.2079   87.5847   11.5342 O.3     1  UNL1       -0.3783
     23 H          59.9304   88.4913   11.7391 H       1  UNL1        0.2109
     24 C          62.2191   86.3271   10.4743 C.ar    1  UNL1        0.0067
     25 C          62.6049   86.1124    9.0408 C.ar    1  UNL1       -0.0018
     26 C          63.2617   84.8295    8.6249 C.ar    1  UNL1        0.0006
     27 C          63.5326   83.7614    9.6425 C.ar    1  UNL1        0.0114
     28 C          63.1468   83.9761   11.0761 C.ar    1  UNL1        0.0574
     29 CL         63.4177   82.9079   12.0938 Cl      1  UNL1       -0.0823
     30 C          62.4900   85.2589   11.4920 C.ar    1  UNL1        0.0095
@<TRIPOS>BOND
     1     8     9    1
     2     9    10    2
     3    10    11    1
     4    11    12    2
     5    12    13    1
     6    13    14    2
     7    14    15    1
     8    15     1    1
     9     1     2    1
    10     2    18    1
    11    18    20    1
    12    20    21    1
    13    21    22    1
    14    21    24    1
    15    24    25   ar
    16    25    26   ar
    17    26    27   ar
    18    27    28   ar
    19    28    29    1
    20    28    30   ar
    21     2     3    2
    22     3     4    1
    23     4     5    2
    24     5     6    1
    25     6     7    2
    26    15    16    2
    27    16    17    1
    28    17     9    1
    29    17    13    1
    30     6     1    1
    31    30    24   ar
    32    18    19    1
    33    22    23    1
@<TRIPOS>MOLECULE
*****
 30 33 0 0 0
SMALL
GASTEIGER

@<TRIPOS>ATOM
      1 C          64.8016   91.1135   13.4902 C.3     1  UNL1        0.2246
      2 C          64.1951   91.2801   12.1284 C.2     1  UNL1        0.0436
      3 C          64.6147   92.4256   11.2556 C.2     1  UNL1        0.0288
      4 C          65.6408   93.4044   11.7445 C.2     1  UNL1        0.0896
      5 N          66.2473   93.2377   13.1062 N.am    1  UNL1       -0.1770
      6 C          65.8277   92.0923   13.9790 C.2     1  UNL1        0.2627
      7 O          66.4343   91.9257   15.3408 O.2     1  UNL1       -0.2719
      8 C          64.4236   85.2769   14.4259 C.3     1  UNL1        0.0312
      9 C          63.8983   86.2451   15.4440 C.2     1  UNL1        0.0124
     10 C          63.2723   85.7373   16.7089 C.2     1  UNL1       -0.0038
     11 C          62.7470   86.7055   17.7271 C.2     1  UNL1        0.0031
     12 C          62.8477   88.1816   17.4802 C.2     1  UNL1        0.0468
     13 C          63.4737   88.6894   16.2153 C.2     1  UNL1        0.2234
     14 N          63.7104   90.0780   15.6997 N.2     1  UNL1       -0.0378
     15 C          64.3820   89.9680   14.3630 C.2     1  UNL1        0.3605
     16 N          64.5604   88.5114   14.0524 N.2     1  UNL1       -0.0547
     17 C          63.9990   87.7212   15.1972 C.3     1  UNL1        0.2975
     18 N          63.1690   90.3013   11.6395 N.pl3   1  UNL1       -0.3329
     19 H          62.9728   89.4910   12.1631 H       1  UNL1        0.1466
     20 C          62.4418   90.5570   10.3528 C.3     1  UNL1        0.1211
     21 C          61.0855   89.9577   10.1258 C.3     1  UNL1        0.1522
     22 O          59.8601   90.6655   10.6231 O.3     1  UNL1       -0.3783
     23 H          60.1194   91.4891   11.0651 H       1  UNL1        0.2109
     24 C          60.9547   88.6507    9.4017 C.ar    1  UNL1        0.0067
     25 C          59.7554   88.3873    8.5402 C.ar    1  UNL1       -0.0018
     26 C          59.6245   87.0802    7.8160 C.ar    1  UNL1        0.0006
     27 C          60.6931   86.0365    7.9533 C.ar    1  UNL1        0.0114
     28 C          61.8925   86.2999    8.8148 C.ar    1  UNL1        0.0574
     29 CL         62.9611   85.2562    8.9520 Cl      1  UNL1       -0.0823
     30 C          62.0233   87.6070    9.5389 C.ar    1  UNL1        0.0095
@<TRIPOS>BOND
     1     8     9    1
     2     9    10    2
     3    10    11    1
     4    11    12    2
     5    12    13    1
     6    13    14    2
     7    14    15    1
     8    15     1    1
     9     1     2    1
    10     2    18    1
    11    18    20    1
    12    20    21    1
    13    21    22    1
    14    21    24    1
    15    24    25   ar
    16    25    26   ar
    17    26    27   ar
    18    27    28   ar
    19    28    29    1
    20    28    30   ar
    21     2     3    2
    22     3     4    1
    23     4     5    2
    24     5     6    1
    25     6     7    2
    26    15    16    2
    27    16    17    1
    28    17     9    1
    29    17    13    1
    30     6     1    1
    31    30    24   ar
    32    18    19    1
    33    22    23    1
@<TRIPOS>MOLECULE
*****
 30 33 0 0 0
SMALL
GASTEIGER

@<TRIPOS>ATOM
      1 C          61.2935   88.2177    9.8038 C.3     1  UNL1        0.2246
      2 C          61.5238   86.7867    9.4178 C.2     1  UNL1        0.0436
      3 C          60.6189   86.1234    8.4222 C.2     1  UNL1        0.0288
      4 C          59.4837   86.8912    7.8125 C.2     1  UNL1        0.0896
      5 N          59.2535   88.3223    8.1984 N.am    1  UNL1       -0.1770
      6 C          60.1584   88.9855    9.1940 C.2     1  UNL1        0.2627
      7 O          59.9280   90.4167    9.5800 O.2     1  UNL1       -0.2719
      8 C          64.8886   92.6989   11.2457 C.3     1  UNL1        0.0312
      9 C          64.6316   91.5875   12.2197 C.2     1  UNL1        0.0124
     10 C          65.2868   91.6061   13.5689 C.2     1  UNL1       -0.0038
     11 C          65.0298   90.4947   14.5429 C.2     1  UNL1        0.0031
     12 C          64.1176   89.3646   14.1677 C.2     1  UNL1        0.0468
     13 C          63.4625   89.3459   12.8185 C.2     1  UNL1        0.2234
     14 N          62.5224   88.3717   12.1725 N.2     1  UNL1       -0.0378
     15 C          62.1984   88.8810   10.7994 C.2     1  UNL1        0.3605
     16 N          62.9383   90.1700   10.5966 N.2     1  UNL1       -0.0547
     17 C          63.7195   90.4574   11.8445 C.3     1  UNL1        0.2975
     18 N          62.6590   86.0188   10.0276 N.pl3   1  UNL1       -0.3329
     19 H          63.4113   86.4991   10.4430 H       1  UNL1        0.1466
     20 C          62.6481   84.5190   10.0042 C.3     1  UNL1        0.1211
     21 C          63.5565   83.7481   10.9156 C.3     1  UNL1        0.1522
     22 O          64.7463   83.0273   10.3544 O.3     1  UNL1       -0.3783
     23 H          64.7821   83.1610    9.3943 H       1  UNL1        0.2109
     24 C          63.2751   83.6979   12.3881 C.ar    1  UNL1        0.0067
     25 C          62.5202   82.5388   12.9682 C.ar    1  UNL1       -0.0018
     26 C          62.2387   82.4886   14.4408 C.ar    1  UNL1        0.0006
     27 C          62.7122   83.5975   15.3331 C.ar    1  UNL1        0.0114
     28 C          63.4671   84.7566   14.7528 C.ar    1  UNL1        0.0574
     29 CL         63.9406   85.8654   15.6452 Cl      1  UNL1       -0.0823
     30 C          63.7486   84.8068   13.2804 C.ar    1  UNL1        0.0095
@<TRIPOS>BOND
     1     8     9    1
     2     9    10    2
     3    10    11    1
     4    11    12    2
     5    12    13    1
     6    13    14    2
     7    14    15    1
     8    15     1    1
     9     1     2    1
    10     2    18    1
    11    18    20    1
    12    20    21    1
    13    21    22    1
    14    21    24    1
    15    24    25   ar
    16    25    26   ar
    17    26    27   ar
    18    27    28   ar
    19    28    29    1
    20    28    30   ar
    21     2     3    2
    22     3     4    1
    23     4     5    2
    24     5     6    1
    25     6     7    2
    26    15    16    2
    27    16    17    1
    28    17     9    1
    29    17    13    1
    30     6     1    1
    31    30    24   ar
    32    18    19    1
    33    22    23    1
