@<TRIPOS>MOLECULE
*****
 24 26 0 0 0
SMALL
GASTEIGER

@<TRIPOS>ATOM
      1 C          64.1662   91.1918   12.7306 C.ar    1  UNL1        0.1386
      2 C          63.8614   91.6357   11.3306 C.ar    1  UNL1        0.0369
      3 C          63.0961   90.7341   10.4078 C.ar    1  UNL1        0.0043
      4 C          62.6357   89.3886   10.8851 C.ar    1  UNL1        0.0153
      5 C          62.9405   88.9448   12.2851 C.ar    1  UNL1        0.0043
      6 C          63.7058   89.8464   13.2078 C.ar    1  UNL1        0.0369
      7 C          61.8704   88.4870    9.9623 C.2     1  UNL1        0.0767
      8 N          60.6621   89.0044    9.2397 N.2     1  UNL1       -0.1836
      9 N          59.8968   88.1028    8.3169 N.am    1  UNL1       -0.2062
     10 C          60.3400   86.6838    8.1167 C.2     1  UNL1        0.2415
     11 O          59.5748   85.7822    7.1939 O.2     1  UNL1       -0.2734
     12 C          61.5484   86.1664    8.8393 C.3     1  UNL1        0.0931
     13 C          62.3136   87.0680    9.7620 C.3     1  UNL1        0.0570
     14 H          59.1037   88.4423    7.8427 H       1  UNL1        0.1772
     15 O          64.9315   92.0934   13.6534 O.3     1  UNL1       -0.4754
     16 C          66.2822   91.6792   14.1571 C.3     1  UNL1        0.2068
     17 C          67.5221   92.1765   13.4748 C.3     1  UNL1        0.0646
     18 C          67.6775   92.0164   11.9916 C.3     1  UNL1        0.0759
     19 C          68.6281   92.3645    8.8892 C.3     1  UNL1        0.0173
     20 C          67.7291   93.2969    9.6458 C.3     1  UNL1        0.0576
     21 C          67.1091   94.5529    9.1092 C.3     1  UNL1        0.0174
     22 C          66.2890   95.1693   10.2036 C.3     1  UNL1        0.0187
     23 C          66.4021   94.2941   11.4165 C.3     1  UNL1        0.0721
     24 N          67.2921   93.1369   11.0718 N.3     1  UNL1       -0.2738
@<TRIPOS>BOND
     1    20    19    1
     2    20    21    1
     3    21    22    1
     4    22    23    1
     5    23    24    1
     6    24    18    1
     7    18    17    1
     8    17    16    1
     9    16    15    1
    10    15     1    1
    11     1     2   ar
    12     2     3   ar
    13     3     4   ar
    14     4     7    1
    15     7     8    2
    16     8     9    1
    17     9    10   am
    18    10    11    2
    19    10    12    1
    20    12    13    1
    21     4     5   ar
    22     5     6   ar
    23    24    20    1
    24     6     1   ar
    25    13     7    1
    26     9    14    1
@<TRIPOS>MOLECULE
*****
 24 26 0 0 0
SMALL
GASTEIGER

@<TRIPOS>ATOM
      1 C          62.8692   89.0392   12.2482 C.ar    1  UNL1        0.1386
      2 C          63.1708   90.4083   11.7150 C.ar    1  UNL1        0.0369
      3 C          64.1658   91.2841   12.4170 C.ar    1  UNL1        0.0043
      4 C          64.8592   90.7908   13.6523 C.ar    1  UNL1        0.0153
      5 C          64.5575   89.4216   14.1855 C.ar    1  UNL1        0.0043
      6 C          63.5625   88.5458   13.4835 C.ar    1  UNL1        0.0369
      7 C          65.8542   91.6666   14.3544 C.2     1  UNL1        0.0767
      8 N          65.4688   92.3753   15.6189 N.2     1  UNL1       -0.1836
      9 N          66.4638   93.2512   16.3210 N.am    1  UNL1       -0.2062
     10 C          67.8442   93.4183   15.7584 C.2     1  UNL1        0.2415
     11 O          68.8393   94.2942   16.4604 O.2     1  UNL1       -0.2734
     12 C          68.2296   92.7096   14.4938 C.3     1  UNL1        0.0931
     13 C          67.2346   91.8338   13.7918 C.3     1  UNL1        0.0570
     14 H          66.2109   93.7164   17.1510 H       1  UNL1        0.1772
     15 O          61.8741   88.1633   11.5461 O.3     1  UNL1       -0.4754
     16 C          62.3251   86.8912   10.8916 C.3     1  UNL1        0.2068
     17 C          61.9808   85.5677   11.5079 C.3     1  UNL1        0.0646
     18 C          62.9465   84.9018   12.4427 C.3     1  UNL1        0.0759
     19 C          63.9142   82.4938   10.4642 C.3     1  UNL1        0.0173
     20 C          63.2745   82.3255   11.8105 C.3     1  UNL1        0.0576
     21 C          62.9674   81.0207   12.4837 C.3     1  UNL1        0.0174
     22 C          62.3327   81.3211   13.8092 C.3     1  UNL1        0.0187
     23 C          62.2476   82.8116   13.9552 C.3     1  UNL1        0.0721
     24 N          62.8297   83.4323   12.7199 N.3     1  UNL1       -0.2738
@<TRIPOS>BOND
     1    20    19    1
     2    20    21    1
     3    21    22    1
     4    22    23    1
     5    23    24    1
     6    24    18    1
     7    18    17    1
     8    17    16    1
     9    16    15    1
    10    15     1    1
    11     1     2   ar
    12     2     3   ar
    13     3     4   ar
    14     4     7    1
    15     7     8    2
    16     8     9    1
    17     9    10   am
    18    10    11    2
    19    10    12    1
    20    12    13    1
    21     4     5   ar
    22     5     6   ar
    23    24    20    1
    24     6     1   ar
    25    13     7    1
    26     9    14    1
@<TRIPOS>MOLECULE
*****
 24 26 0 0 0
SMALL
GASTEIGER

@<TRIPOS>ATOM
      1 C          62.2919   89.7596   10.5529 C.ar    1  UNL1        0.1386
      2 C          62.5883   89.2356   11.9268 C.ar    1  UNL1        0.0369
      3 C          63.5859   89.9388   12.7986 C.ar    1  UNL1        0.0043
      4 C          64.2871   91.1661   12.2967 C.ar    1  UNL1        0.0153
      5 C          63.9908   91.6902   10.9228 C.ar    1  UNL1        0.0043
      6 C          62.9931   90.9869   10.0510 C.ar    1  UNL1        0.0369
      7 C          65.2848   91.8693   13.1686 C.2     1  UNL1        0.0767
      8 N          65.7114   93.2696   12.8414 N.2     1  UNL1       -0.1836
      9 N          66.7091   93.9729   13.7133 N.am    1  UNL1       -0.2062
     10 C          67.2801   93.2757   14.9125 C.2     1  UNL1        0.2415
     11 O          68.2777   93.9789   15.7844 O.2     1  UNL1       -0.2734
     12 C          66.8534   91.8754   15.2397 C.3     1  UNL1        0.0931
     13 C          65.8558   91.1722   14.3678 C.3     1  UNL1        0.0570
     14 H          66.9891   94.8919   13.4985 H       1  UNL1        0.1772
     15 O          61.2942   89.0564    9.6810 O.3     1  UNL1       -0.4754
     16 C          60.5165   87.8923   10.2195 C.3     1  UNL1        0.2068
     17 C          61.0654   86.5018   10.0953 C.3     1  UNL1        0.0646
     18 C          61.6940   85.8347   11.2826 C.3     1  UNL1        0.0759
     19 C          62.7519   83.7784   13.5851 C.3     1  UNL1        0.0173
     20 C          63.1593   83.7708   12.1415 C.3     1  UNL1        0.0576
     21 C          64.1245   82.8166   11.5029 C.3     1  UNL1        0.0174
     22 C          64.2348   83.1721   10.0497 C.3     1  UNL1        0.0187
     23 C          63.3377   84.3459    9.7904 C.3     1  UNL1        0.0721
     24 N          62.6730   84.7160   11.0832 N.3     1  UNL1       -0.2738
@<TRIPOS>BOND
     1    20    19    1
     2    20    21    1
     3    21    22    1
     4    22    23    1
     5    23    24    1
     6    24    18    1
     7    18    17    1
     8    17    16    1
     9    16    15    1
    10    15     1    1
    11     1     2   ar
    12     2     3   ar
    13     3     4   ar
    14     4     7    1
    15     7     8    2
    16     8     9    1
    17     9    10   am
    18    10    11    2
    19    10    12    1
    20    12    13    1
    21     4     5   ar
    22     5     6   ar
    23    24    20    1
    24     6     1   ar
    25    13     7    1
    26     9    14    1
@<TRIPOS>MOLECULE
*****
 24 26 0 0 0
SMALL
GASTEIGER

@<TRIPOS>ATOM
      1 C          63.9148   89.7676   13.7471 C.ar    1  UNL1        0.1386
      2 C          63.2620   89.1991   12.5221 C.ar    1  UNL1        0.0369
      3 C          63.1398   87.7131   12.3585 C.ar    1  UNL1        0.0043
      4 C          63.6704   86.7956   13.4199 C.ar    1  UNL1        0.0153
      5 C          64.3231   87.3640   14.6449 C.ar    1  UNL1        0.0043
      6 C          64.4453   88.8500   14.8085 C.ar    1  UNL1        0.0369
      7 C          63.5481   85.3095   13.2562 C.2     1  UNL1        0.0767
      8 N          64.1230   84.3909   14.2934 N.2     1  UNL1       -0.1836
      9 N          64.0008   82.9048   14.1297 N.am    1  UNL1       -0.2062
     10 C          63.3036   82.3374   12.9289 C.2     1  UNL1        0.2415
     11 O          63.1814   80.8514   12.7652 O.2     1  UNL1       -0.2734
     12 C          62.7287   83.2561   11.8917 C.3     1  UNL1        0.0931
     13 C          62.8509   84.7421   12.0554 C.3     1  UNL1        0.0570
     14 H          64.3781   82.3020   14.8104 H       1  UNL1        0.1772
     15 O          64.0370   91.2536   13.9108 O.3     1  UNL1       -0.4754
     16 C          65.3218   91.9437   13.5598 C.3     1  UNL1        0.2068
     17 C          65.5707   92.3940   12.1508 C.3     1  UNL1        0.0646
     18 C          66.9446   92.8277   11.7337 C.3     1  UNL1        0.0759
     19 C          68.5426   92.4752    8.9103 C.3     1  UNL1        0.0173
     20 C          67.8451   93.7175    9.3795 C.3     1  UNL1        0.0576
     21 C          67.7597   95.0159    8.6332 C.3     1  UNL1        0.0174
     22 C          66.9724   95.9804    9.4698 C.3     1  UNL1        0.0187
     23 C          66.5712   95.2781   10.7330 C.3     1  UNL1        0.0721
     24 N          67.1106   93.8796   10.6772 N.3     1  UNL1       -0.2738
@<TRIPOS>BOND
     1    20    19    1
     2    20    21    1
     3    21    22    1
     4    22    23    1
     5    23    24    1
     6    24    18    1
     7    18    17    1
     8    17    16    1
     9    16    15    1
    10    15     1    1
    11     1     2   ar
    12     2     3   ar
    13     3     4   ar
    14     4     7    1
    15     7     8    2
    16     8     9    1
    17     9    10   am
    18    10    11    2
    19    10    12    1
    20    12    13    1
    21     4     5   ar
    22     5     6   ar
    23    24    20    1
    24     6     1   ar
    25    13     7    1
    26     9    14    1
@<TRIPOS>MOLECULE
*****
 24 26 0 0 0
SMALL
GASTEIGER

@<TRIPOS>ATOM
      1 C          62.8312   89.7358   12.1492 C.ar    1  UNL1        0.1386
      2 C          63.4058   89.1608   13.4098 C.ar    1  UNL1        0.0369
      3 C          64.5624   89.8376   14.0837 C.ar    1  UNL1        0.0043
      4 C          65.1444   91.0893   13.4969 C.ar    1  UNL1        0.0153
      5 C          64.5698   91.6643   12.2363 C.ar    1  UNL1        0.0043
      6 C          63.4132   90.9876   11.5625 C.ar    1  UNL1        0.0369
      7 C          66.3012   91.7661   14.1708 C.2     1  UNL1        0.0767
      8 N          67.6349   91.8296   13.4874 N.2     1  UNL1       -0.1836
      9 N          68.7916   92.5063   14.1613 N.am    1  UNL1       -0.2062
     10 C          68.6145   93.1197   15.5187 C.2     1  UNL1        0.2415
     11 O          69.7711   93.7964   16.1926 O.2     1  UNL1       -0.2734
     12 C          67.2807   93.0562   16.2021 C.3     1  UNL1        0.0931
     13 C          66.1241   92.3794   15.5282 C.3     1  UNL1        0.0570
     14 H          69.6669   92.5480   13.7127 H       1  UNL1        0.1772
     15 O          61.6745   89.0590   11.4753 O.3     1  UNL1       -0.4754
     16 C          61.8628   88.4065   10.1379 C.3     1  UNL1        0.2068
     17 C          61.4365   86.9833    9.9310 C.3     1  UNL1        0.0646
     18 C          61.5681   85.9910   11.0481 C.3     1  UNL1        0.0759
     19 C          63.1573   85.1005    8.3406 C.3     1  UNL1        0.0173
     20 C          63.2652   84.4411    9.6835 C.3     1  UNL1        0.0576
     21 C          64.1226   83.2565   10.0177 C.3     1  UNL1        0.0174
     22 C          63.9220   82.9337   11.4688 C.3     1  UNL1        0.0187
     23 C          62.9407   83.9188   12.0314 C.3     1  UNL1        0.0721
     24 N          62.5347   84.8504   10.9280 N.3     1  UNL1       -0.2738
@<TRIPOS>BOND
     1    20    19    1
     2    20    21    1
     3    21    22    1
     4    22    23    1
     5    23    24    1
     6    24    18    1
     7    18    17    1
     8    17    16    1
     9    16    15    1
    10    15     1    1
    11     1     2   ar
    12     2     3   ar
    13     3     4   ar
    14     4     7    1
    15     7     8    2
    16     8     9    1
    17     9    10   am
    18    10    11    2
    19    10    12    1
    20    12    13    1
    21     4     5   ar
    22     5     6   ar
    23    24    20    1
    24     6     1   ar
    25    13     7    1
    26     9    14    1
@<TRIPOS>MOLECULE
*****
 24 26 0 0 0
SMALL
GASTEIGER

@<TRIPOS>ATOM
      1 C          61.4739   89.9981   10.7309 C.ar    1  UNL1        0.1386
      2 C          61.7125   89.6655   12.1739 C.ar    1  UNL1        0.0369
      3 C          62.9240   90.2023   12.8769 C.ar    1  UNL1        0.0043
      4 C          63.8968   91.0717   12.1368 C.ar    1  UNL1        0.0153
      5 C          63.6582   91.4043   10.6937 C.ar    1  UNL1        0.0043
      6 C          62.4468   90.8675    9.9908 C.ar    1  UNL1        0.0369
      7 C          65.1083   91.6085   12.8398 C.2     1  UNL1        0.0767
      8 N          65.8941   92.7308   12.2291 N.2     1  UNL1       -0.1836
      9 N          67.1056   93.2676   12.9321 N.am    1  UNL1       -0.2062
     10 C          67.5313   92.6820   14.2458 C.2     1  UNL1        0.2415
     11 O          68.7427   93.2188   14.9489 O.2     1  UNL1       -0.2734
     12 C          66.7455   91.5597   14.8566 C.3     1  UNL1        0.0931
     13 C          65.5340   91.0230   14.1535 C.3     1  UNL1        0.0570
     14 H          67.6213   94.0042   12.5313 H       1  UNL1        0.1772
     15 O          60.2624   89.4613   10.0279 O.3     1  UNL1       -0.4754
     16 C          60.3674   88.9870    8.6087 C.3     1  UNL1        0.2068
     17 C          59.3798   87.9919    8.0754 C.3     1  UNL1        0.0646
     18 C          59.7491   86.5406    7.9900 C.3     1  UNL1        0.0759
     19 C          62.2825   84.9358    6.7033 C.3     1  UNL1        0.0173
     20 C          62.1041   85.2865    8.1507 C.3     1  UNL1        0.0576
     21 C          63.0589   84.9612    9.2609 C.3     1  UNL1        0.0174
     22 C          62.4846   85.4978   10.5385 C.3     1  UNL1        0.0187
     23 C          61.1748   86.1548   10.2179 C.3     1  UNL1        0.0721
     24 N          60.9396   86.0242    8.7422 N.3     1  UNL1       -0.2738
@<TRIPOS>BOND
     1    20    19    1
     2    20    21    1
     3    21    22    1
     4    22    23    1
     5    23    24    1
     6    24    18    1
     7    18    17    1
     8    17    16    1
     9    16    15    1
    10    15     1    1
    11     1     2   ar
    12     2     3   ar
    13     3     4   ar
    14     4     7    1
    15     7     8    2
    16     8     9    1
    17     9    10   am
    18    10    11    2
    19    10    12    1
    20    12    13    1
    21     4     5   ar
    22     5     6   ar
    23    24    20    1
    24     6     1   ar
    25    13     7    1
    26     9    14    1
@<TRIPOS>MOLECULE
*****
 24 26 0 0 0
SMALL
GASTEIGER

@<TRIPOS>ATOM
      1 C          62.1739   90.1972   11.6108 C.ar    1  UNL1        0.1386
      2 C          62.3841   89.8695   13.0594 C.ar    1  UNL1        0.0369
      3 C          63.5719   90.4235   13.7889 C.ar    1  UNL1        0.0043
      4 C          64.5495   91.3051   13.0698 C.ar    1  UNL1        0.0153
      5 C          64.3393   91.6328   11.6213 C.ar    1  UNL1        0.0043
      6 C          63.1515   91.0788   10.8918 C.ar    1  UNL1        0.0369
      7 C          65.7374   91.8590   13.7994 C.2     1  UNL1        0.0767
      8 N          67.0237   92.0978   13.0658 N.2     1  UNL1       -0.1836
      9 N          68.2116   92.6517   13.7954 N.am    1  UNL1       -0.2062
     10 C          68.1130   92.9669   15.2586 C.2     1  UNL1        0.2415
     11 O          69.3008   93.5208   15.9882 O.2     1  UNL1       -0.2734
     12 C          66.8265   92.7281   15.9922 C.3     1  UNL1        0.0931
     13 C          65.6388   92.1742   15.2626 C.3     1  UNL1        0.0570
     14 H          69.0559   92.8084   13.3139 H       1  UNL1        0.1772
     15 O          60.9860   89.6433   10.8813 O.3     1  UNL1       -0.4754
     16 C          61.0802   89.3416    9.4150 C.3     1  UNL1        0.2068
     17 C          59.9853   88.5737    8.7354 C.3     1  UNL1        0.0646
     18 C          59.8877   87.0879    8.9161 C.3     1  UNL1        0.0759
     19 C          62.1028   86.2517   11.1618 C.3     1  UNL1        0.0173
     20 C          62.1104   85.8395    9.7196 C.3     1  UNL1        0.0576
     21 C          63.1375   84.9704    9.0565 C.3     1  UNL1        0.0174
     22 C          62.7541   84.8176    7.6143 C.3     1  UNL1        0.0187
     23 C          61.4900   85.5923    7.3863 C.3     1  UNL1        0.0721
     24 N          61.0922   86.2238    8.6874 N.3     1  UNL1       -0.2738
@<TRIPOS>BOND
     1    20    19    1
     2    20    21    1
     3    21    22    1
     4    22    23    1
     5    23    24    1
     6    24    18    1
     7    18    17    1
     8    17    16    1
     9    16    15    1
    10    15     1    1
    11     1     2   ar
    12     2     3   ar
    13     3     4   ar
    14     4     7    1
    15     7     8    2
    16     8     9    1
    17     9    10   am
    18    10    11    2
    19    10    12    1
    20    12    13    1
    21     4     5   ar
    22     5     6   ar
    23    24    20    1
    24     6     1   ar
    25    13     7    1
    26     9    14    1
@<TRIPOS>MOLECULE
*****
 24 26 0 0 0
SMALL
GASTEIGER

@<TRIPOS>ATOM
      1 C          64.1156   88.9540   14.2807 C.ar    1  UNL1        0.1386
      2 C          65.1391   89.8602   14.8980 C.ar    1  UNL1        0.0369
      3 C          65.5593   91.1119   14.1861 C.ar    1  UNL1        0.0043
      4 C          64.9559   91.4573   12.8570 C.ar    1  UNL1        0.0153
      5 C          63.9324   90.5511   12.2397 C.ar    1  UNL1        0.0043
      6 C          63.5122   89.2994   12.9516 C.ar    1  UNL1        0.0369
      7 C          65.3762   92.7090   12.1451 C.2     1  UNL1        0.0767
      8 N          65.1226   92.8563   10.6741 N.2     1  UNL1       -0.1836
      9 N          65.5429   94.1080    9.9622 N.am    1  UNL1       -0.2062
     10 C          66.2167   95.2124   10.7214 C.2     1  UNL1        0.2415
     11 O          66.6369   96.4641   10.0097 O.2     1  UNL1       -0.2734
     12 C          66.4702   95.0650   12.1926 C.3     1  UNL1        0.0931
     13 C          66.0500   93.8134   12.9043 C.3     1  UNL1        0.0570
     14 H          65.3765   94.2047    8.9967 H       1  UNL1        0.1772
     15 O          63.6953   87.7023   14.9926 O.3     1  UNL1       -0.4754
     16 C          64.3633   86.3978   14.6735 C.3     1  UNL1        0.2068
     17 C          63.7073   85.1051   15.0592 C.3     1  UNL1        0.0646
     18 C          62.7530   84.4371   14.1142 C.3     1  UNL1        0.0759
     19 C          61.7666   85.8099   11.3228 C.3     1  UNL1        0.0173
     20 C          62.7524   84.6868   11.4530 C.3     1  UNL1        0.0576
     21 C          63.4579   83.9976   10.3228 C.3     1  UNL1        0.0174
     22 C          64.3473   82.9406   10.9074 C.3     1  UNL1        0.0187
     23 C          64.1915   82.9766   12.3988 C.3     1  UNL1        0.0721
     24 N          63.2058   84.0558   12.7360 N.3     1  UNL1       -0.2738
@<TRIPOS>BOND
     1    20    19    1
     2    20    21    1
     3    21    22    1
     4    22    23    1
     5    23    24    1
     6    24    18    1
     7    18    17    1
     8    17    16    1
     9    16    15    1
    10    15     1    1
    11     1     2   ar
    12     2     3   ar
    13     3     4   ar
    14     4     7    1
    15     7     8    2
    16     8     9    1
    17     9    10   am
    18    10    11    2
    19    10    12    1
    20    12    13    1
    21     4     5   ar
    22     5     6   ar
    23    24    20    1
    24     6     1   ar
    25    13     7    1
    26     9    14    1
@<TRIPOS>MOLECULE
*****
 24 26 0 0 0
SMALL
GASTEIGER

@<TRIPOS>ATOM
      1 C          62.9682   89.1759   12.3870 C.ar    1  UNL1        0.1386
      2 C          63.6865   88.7204   13.6225 C.ar    1  UNL1        0.0369
      3 C          64.7230   89.6010   14.2551 C.ar    1  UNL1        0.0043
      4 C          65.0412   90.9371   13.6521 C.ar    1  UNL1        0.0153
      5 C          64.3229   91.3926   12.4166 C.ar    1  UNL1        0.0043
      6 C          63.2864   90.5120   11.7841 C.ar    1  UNL1        0.0369
      7 C          66.0778   91.8177   14.2847 C.2     1  UNL1        0.0767
      8 N          65.9909   93.3074   14.1317 N.2     1  UNL1       -0.1836
      9 N          67.0275   94.1880   14.7643 N.am    1  UNL1       -0.2062
     10 C          68.1509   93.5789   15.5499 C.2     1  UNL1        0.2415
     11 O          69.1874   94.4595   16.1824 O.2     1  UNL1       -0.2734
     12 C          68.2377   92.0892   15.7028 C.3     1  UNL1        0.0931
     13 C          67.2011   91.2087   15.0702 C.3     1  UNL1        0.0570
     14 H          66.9705   95.1657   14.6640 H       1  UNL1        0.1772
     15 O          61.9316   88.2952   11.7544 O.3     1  UNL1       -0.4754
     16 C          62.0919   86.8043   11.7889 C.3     1  UNL1        0.2068
     17 C          62.5091   86.0659   10.5516 C.3     1  UNL1        0.0646
     18 C          62.3963   86.7270    9.2099 C.3     1  UNL1        0.0759
     19 C          60.7674   89.5547    9.2067 C.3     1  UNL1        0.0173
     20 C          60.2970   88.2655    8.6011 C.3     1  UNL1        0.0576
     21 C          58.9953   88.0498    7.8877 C.3     1  UNL1        0.0174
     22 C          58.9395   86.6167    7.4483 C.3     1  UNL1        0.0187
     23 C          60.2068   85.9467    7.8901 C.3     1  UNL1        0.0721
     24 N          61.0458   86.9658    8.6026 N.3     1  UNL1       -0.2738
@<TRIPOS>BOND
     1    20    19    1
     2    20    21    1
     3    21    22    1
     4    22    23    1
     5    23    24    1
     6    24    18    1
     7    18    17    1
     8    17    16    1
     9    16    15    1
    10    15     1    1
    11     1     2   ar
    12     2     3   ar
    13     3     4   ar
    14     4     7    1
    15     7     8    2
    16     8     9    1
    17     9    10   am
    18    10    11    2
    19    10    12    1
    20    12    13    1
    21     4     5   ar
    22     5     6   ar
    23    24    20    1
    24     6     1   ar
    25    13     7    1
    26     9    14    1
