@<TRIPOS>MOLECULE
*****
 25 28 0 0 0
SMALL
GASTEIGER

@<TRIPOS>ATOM
      1 N          64.2104   90.9028   13.7406 N.ar    1  UNL1       -0.3100
      2 C          65.3708   91.6705   13.1801 C.ar    1  UNL1        0.1317
      3 N          65.1169   91.8926   11.7185 N.ar    1  UNL1       -0.2300
      4 C          63.7997   91.2622   11.3758 C.ar    1  UNL1        0.0984
      5 C          63.0380   91.1661   10.0871 C.ar    1  UNL1        0.0206
      6 C          61.7161   90.4584   10.0483 C.ar    1  UNL1        0.0016
      7 C          61.1558   89.8467   11.2981 C.ar    1  UNL1        0.0016
      8 C          61.9175   89.9427   12.5867 C.ar    1  UNL1        0.0188
      9 C          63.2394   90.6505   12.6255 C.ar    1  UNL1        0.0789
     10 C          66.5738   92.1346   13.9465 C.3     1  UNL1        0.1199
     11 C          67.9512   91.8292   13.4373 C.3     1  UNL1        0.0871
     12 N          69.1542   92.2933   14.2037 N.3     1  UNL1       -0.2957
     13 C          68.9798   93.0628   15.4794 C.3     1  UNL1        0.0804
     14 C          67.6024   93.3682   15.9886 C.3     1  UNL1        0.0750
     15 S          66.3994   92.9041   15.2222 S.3     1  UNL1       -0.1306
     16 H          69.6941   92.8864   13.5735 H       1  UNL1        0.1233
     17 C          64.0493   90.4645   15.1661 C.3     1  UNL1        0.1339
     18 C          63.5179   86.1017   16.1323 C.ar    1  UNL1        0.1387
     19 C          62.9542   87.1469   17.0488 C.ar    1  UNL1        0.0366
     20 C          63.1314   88.6012   16.7267 C.ar    1  UNL1        0.0007
     21 C          63.8722   89.0103   15.4881 C.ar    1  UNL1        0.0006
     22 C          64.4359   87.9650   14.5718 C.ar    1  UNL1        0.0007
     23 C          64.2587   86.5108   14.8939 C.ar    1  UNL1        0.0366
     24 C          62.7509   83.7196   15.4340 C.3     1  UNL1        0.2525
     25 O          63.3408   84.6475   16.4545 O.3     1  UNL1       -0.4714
@<TRIPOS>BOND
     1    24    25    1
     2    25    18    1
     3    18    19   ar
     4    19    20   ar
     5    20    21   ar
     6    21    17    1
     7    17     1    1
     8     1     2   ar
     9     2    10    1
    10    10    11    1
    11    11    12    1
    12    12    13    1
    13    13    14    1
    14    14    15    1
    15     2     3   ar
    16     3     4   ar
    17     4     5   ar
    18     5     6   ar
    19     6     7   ar
    20     7     8   ar
    21     8     9   ar
    22    21    22   ar
    23    22    23   ar
    24    23    18   ar
    25     9     1   ar
    26    15    10    1
    27     9     4   ar
    28    12    16    1
@<TRIPOS>MOLECULE
*****
 25 28 0 0 0
SMALL
GASTEIGER

@<TRIPOS>ATOM
      1 N          62.4030   88.1886   11.9469 N.ar    1  UNL1       -0.3100
      2 C          61.8810   87.2873   10.8674 C.ar    1  UNL1        0.1317
      3 N          62.3672   85.8966   11.1495 N.ar    1  UNL1       -0.2300
      4 C          63.1896   85.9384   12.4033 C.ar    1  UNL1        0.0984
      5 C          63.9212   84.8696   13.1598 C.ar    1  UNL1        0.0206
      6 C          64.6749   85.2173   14.4092 C.ar    1  UNL1        0.0016
      7 C          64.6970   86.6339   14.9020 C.ar    1  UNL1        0.0016
      8 C          63.9655   87.7027   14.1454 C.ar    1  UNL1        0.0188
      9 C          63.2118   87.3549   12.8961 C.ar    1  UNL1        0.0789
     10 C          61.0235   87.7036    9.7093 C.3     1  UNL1        0.1199
     11 C          60.9106   89.1537    9.3428 C.3     1  UNL1        0.0871
     12 N          60.0530   89.5701    8.1847 N.3     1  UNL1       -0.2957
     13 C          59.3084   88.5363    7.3930 C.3     1  UNL1        0.0804
     14 C          59.4213   87.0861    7.7595 C.3     1  UNL1        0.0750
     15 S          60.2789   86.6698    8.9177 S.3     1  UNL1       -0.1306
     16 H          60.6613   90.0609    7.5294 H       1  UNL1        0.1233
     17 C          62.1591   89.6645   12.0577 C.3     1  UNL1        0.1339
     18 C          65.6034   92.5439   11.7489 C.ar    1  UNL1        0.1387
     19 C          64.7844   92.2212   10.5343 C.ar    1  UNL1        0.0366
     20 C          63.6363   91.2614   10.6373 C.ar    1  UNL1        0.0007
     21 C          63.3072   90.6242   11.9548 C.ar    1  UNL1        0.0006
     22 C          64.1262   90.9470   13.1693 C.ar    1  UNL1        0.0007
     23 C          65.2743   91.9068   13.0663 C.ar    1  UNL1        0.0366
     24 C          66.5082   94.9212   11.2193 C.3     1  UNL1        0.2525
     25 O          66.7515   93.5037   11.6459 O.3     1  UNL1       -0.4714
@<TRIPOS>BOND
     1    24    25    1
     2    25    18    1
     3    18    19   ar
     4    19    20   ar
     5    20    21   ar
     6    21    17    1
     7    17     1    1
     8     1     2   ar
     9     2    10    1
    10    10    11    1
    11    11    12    1
    12    12    13    1
    13    13    14    1
    14    14    15    1
    15     2     3   ar
    16     3     4   ar
    17     4     5   ar
    18     5     6   ar
    19     6     7   ar
    20     7     8   ar
    21     8     9   ar
    22    21    22   ar
    23    22    23   ar
    24    23    18   ar
    25     9     1   ar
    26    15    10    1
    27     9     4   ar
    28    12    16    1
@<TRIPOS>MOLECULE
*****
 25 28 0 0 0
SMALL
GASTEIGER

@<TRIPOS>ATOM
      1 N          63.2019   83.6603   12.5903 N.ar    1  UNL1       -0.3100
      2 C          62.9308   83.5371   14.0605 C.ar    1  UNL1        0.1317
      3 N          62.6475   82.0949   14.3602 N.ar    1  UNL1       -0.2300
      4 C          62.7435   81.3268   13.0754 C.ar    1  UNL1        0.0984
      5 C          62.5631   79.8715   12.7602 C.ar    1  UNL1        0.0206
      6 C          62.7254   79.3836   11.3511 C.ar    1  UNL1        0.0016
      7 C          63.0681   80.3510   10.2572 C.ar    1  UNL1        0.0016
      8 C          63.2484   81.8064   10.5724 C.ar    1  UNL1        0.0188
      9 C          63.0861   82.2943   11.9815 C.ar    1  UNL1        0.0789
     10 C          62.9412   84.6590   15.0560 C.3     1  UNL1        0.1199
     11 C          61.8338   84.7808   16.0604 C.3     1  UNL1        0.0871
     12 N          61.8442   85.9028   17.0559 N.3     1  UNL1       -0.2957
     13 C          62.9620   86.9029   17.0471 C.3     1  UNL1        0.0804
     14 C          64.0694   86.7812   16.0427 C.3     1  UNL1        0.0750
     15 S          64.0590   85.6592   15.0472 S.3     1  UNL1       -0.1306
     16 H          61.8393   85.4749   17.9818 H       1  UNL1        0.1233
     17 C          63.5310   84.9271   11.8576 C.3     1  UNL1        0.1339
     18 C          60.8132   86.4081    8.5910 C.ar    1  UNL1        0.1387
     19 C          60.4834   86.6907   10.0268 C.ar    1  UNL1        0.0366
     20 C          61.3893   86.1970   11.1156 C.ar    1  UNL1        0.0007
     21 C          62.6251   85.4207   10.7688 C.ar    1  UNL1        0.0006
     22 C          62.9549   85.1382    9.3330 C.ar    1  UNL1        0.0007
     23 C          62.0490   85.6319    8.2442 C.ar    1  UNL1        0.0366
     24 C          59.2931   88.2669    7.5990 C.3     1  UNL1        0.2525
     25 O          59.9073   86.9018    7.5022 O.3     1  UNL1       -0.4714
@<TRIPOS>BOND
     1    24    25    1
     2    25    18    1
     3    18    19   ar
     4    19    20   ar
     5    20    21   ar
     6    21    17    1
     7    17     1    1
     8     1     2   ar
     9     2    10    1
    10    10    11    1
    11    11    12    1
    12    12    13    1
    13    13    14    1
    14    14    15    1
    15     2     3   ar
    16     3     4   ar
    17     4     5   ar
    18     5     6   ar
    19     6     7   ar
    20     7     8   ar
    21     8     9   ar
    22    21    22   ar
    23    22    23   ar
    24    23    18   ar
    25     9     1   ar
    26    15    10    1
    27     9     4   ar
    28    12    16    1
@<TRIPOS>MOLECULE
*****
 25 28 0 0 0
SMALL
GASTEIGER

@<TRIPOS>ATOM
      1 N          63.6212   87.9909   13.3009 N.ar    1  UNL1       -0.3100
      2 C          63.5974   89.4898   13.2505 C.ar    1  UNL1        0.1317
      3 N          62.9225   89.9000   11.9753 N.ar    1  UNL1       -0.2300
      4 C          62.5292   88.6546   11.2375 C.ar    1  UNL1        0.0984
      5 C          61.8337   88.4426    9.9256 C.ar    1  UNL1        0.0206
      6 C          61.5700   87.0506    9.4330 C.ar    1  UNL1        0.0016
      7 C          62.0018   85.8706   10.2523 C.ar    1  UNL1        0.0016
      8 C          62.6973   86.0827   11.5642 C.ar    1  UNL1        0.0188
      9 C          62.9610   87.4747   12.0569 C.ar    1  UNL1        0.0789
     10 C          64.1512   90.4160   14.2924 C.3     1  UNL1        0.1199
     11 C          63.3859   90.6642   15.5584 C.3     1  UNL1        0.0871
     12 N          63.9397   91.5903   16.6003 N.3     1  UNL1       -0.2957
     13 C          65.2589   92.2682   16.3762 C.3     1  UNL1        0.0804
     14 C          66.0242   92.0201   15.1103 C.3     1  UNL1        0.0750
     15 S          65.4703   91.0939   14.0684 S.3     1  UNL1       -0.1306
     16 H          64.0299   91.0472   17.4590 H       1  UNL1        0.1233
     17 C          64.2029   87.1549   14.4021 C.3     1  UNL1        0.1339
     18 C          63.3653   82.7362   14.5551 C.ar    1  UNL1        0.1387
     19 C          64.5456   83.2495   13.7848 C.ar    1  UNL1        0.0366
     20 C          64.8248   84.7224   13.7338 C.ar    1  UNL1        0.0007
     21 C          63.9237   85.6820   14.4531 C.ar    1  UNL1        0.0006
     22 C          62.7434   85.1686   15.2234 C.ar    1  UNL1        0.0007
     23 C          62.4643   83.6957   15.2744 C.ar    1  UNL1        0.0366
     24 C          61.9975   80.6764   13.7571 C.3     1  UNL1        0.2525
     25 O          63.0861   81.2633   14.6061 O.3     1  UNL1       -0.4714
@<TRIPOS>BOND
     1    24    25    1
     2    25    18    1
     3    18    19   ar
     4    19    20   ar
     5    20    21   ar
     6    21    17    1
     7    17     1    1
     8     1     2   ar
     9     2    10    1
    10    10    11    1
    11    11    12    1
    12    12    13    1
    13    13    14    1
    14    14    15    1
    15     2     3   ar
    16     3     4   ar
    17     4     5   ar
    18     5     6   ar
    19     6     7   ar
    20     7     8   ar
    21     8     9   ar
    22    21    22   ar
    23    22    23   ar
    24    23    18   ar
    25     9     1   ar
    26    15    10    1
    27     9     4   ar
    28    12    16    1
@<TRIPOS>MOLECULE
*****
 25 28 0 0 0
SMALL
GASTEIGER

@<TRIPOS>ATOM
      1 N          63.9179   90.6310   14.3999 N.ar    1  UNL1       -0.3100
      2 C          63.5243   90.5965   12.9529 C.ar    1  UNL1        0.1317
      3 N          64.4171   91.5433   12.2070 N.ar    1  UNL1       -0.2300
      4 C          65.3626   92.1629   13.1930 C.ar    1  UNL1        0.0984
      5 C          66.4646   93.1676   13.0318 C.ar    1  UNL1        0.0206
      6 C          67.2580   93.6086   14.2259 C.ar    1  UNL1        0.0016
      7 C          66.9495   93.0447   15.5812 C.ar    1  UNL1        0.0016
      8 C          65.8475   92.0400   15.7424 C.ar    1  UNL1        0.0188
      9 C          65.0541   91.5990   14.5483 C.ar    1  UNL1        0.0789
     10 C          62.4299   89.7618   12.3565 C.3     1  UNL1        0.1199
     11 C          60.9954   90.0781   12.6597 C.3     1  UNL1        0.0871
     12 N          59.9010   89.2434   12.0633 N.3     1  UNL1       -0.2957
     13 C          60.2412   88.0924   11.1637 C.3     1  UNL1        0.0804
     14 C          61.6757   87.7760   10.8605 C.3     1  UNL1        0.0750
     15 S          62.7701   88.6107   11.4569 S.3     1  UNL1       -0.1306
     16 H          59.3103   89.8751   11.5227 H       1  UNL1        0.1233
     17 C          63.2863   89.8368   15.5046 C.3     1  UNL1        0.1339
     18 C          64.0085   85.4041   15.7862 C.ar    1  UNL1        0.1387
     19 C          64.5832   86.1864   14.6426 C.ar    1  UNL1        0.0366
     20 C          64.3424   87.6640   14.5488 C.ar    1  UNL1        0.0007
     21 C          63.5270   88.3593   15.5985 C.ar    1  UNL1        0.0006
     22 C          62.9524   87.5769   16.7420 C.ar    1  UNL1        0.0007
     23 C          63.1932   86.0993   16.8358 C.ar    1  UNL1        0.0366
     24 C          63.8124   83.0231   14.7650 C.3     1  UNL1        0.2525
     25 O          64.2493   83.9265   15.8800 O.3     1  UNL1       -0.4714
@<TRIPOS>BOND
     1    24    25    1
     2    25    18    1
     3    18    19   ar
     4    19    20   ar
     5    20    21   ar
     6    21    17    1
     7    17     1    1
     8     1     2   ar
     9     2    10    1
    10    10    11    1
    11    11    12    1
    12    12    13    1
    13    13    14    1
    14    14    15    1
    15     2     3   ar
    16     3     4   ar
    17     4     5   ar
    18     5     6   ar
    19     6     7   ar
    20     7     8   ar
    21     8     9   ar
    22    21    22   ar
    23    22    23   ar
    24    23    18   ar
    25     9     1   ar
    26    15    10    1
    27     9     4   ar
    28    12    16    1
@<TRIPOS>MOLECULE
*****
 25 28 0 0 0
SMALL
GASTEIGER

@<TRIPOS>ATOM
      1 N          63.0171   85.9134   12.3028 N.ar    1  UNL1       -0.3100
      2 C          63.3838   85.1278   13.5268 C.ar    1  UNL1        0.1317
      3 N          63.8834   86.0904   14.5629 N.ar    1  UNL1       -0.2300
      4 C          63.8255   87.4710   13.9793 C.ar    1  UNL1        0.0984
      5 C          64.1912   88.8136   14.5393 C.ar    1  UNL1        0.0206
      6 C          64.0214   90.0468   13.7024 C.ar    1  UNL1        0.0016
      7 C          63.4859   89.9374   12.3055 C.ar    1  UNL1        0.0016
      8 C          63.1203   88.5948   11.7455 C.ar    1  UNL1        0.0188
      9 C          63.2901   87.3616   12.5824 C.ar    1  UNL1        0.0789
     10 C          63.2707   83.6406   13.6866 C.3     1  UNL1        0.1199
     11 C          62.2840   83.0636   14.6580 C.3     1  UNL1        0.0871
     12 N          62.1709   81.5764   14.8178 N.3     1  UNL1       -0.2957
     13 C          63.0445   80.6663   14.0063 C.3     1  UNL1        0.0804
     14 C          64.0311   81.2433   13.0350 C.3     1  UNL1        0.0750
     15 S          64.1442   82.7305   12.8752 S.3     1  UNL1       -0.1306
     16 H          61.2056   81.3294   14.5999 H       1  UNL1        0.1233
     17 C          62.4729   85.3498   11.0236 C.3     1  UNL1        0.1339
     18 C          59.7361   87.8325    8.4554 C.ar    1  UNL1        0.1387
     19 C          59.7064   87.9839    9.9474 C.ar    1  UNL1        0.0366
     20 C          60.6187   87.1563   10.8035 C.ar    1  UNL1        0.0007
     21 C          61.5607   86.1773   10.1675 C.ar    1  UNL1        0.0006
     22 C          61.5902   86.0259    8.6755 C.ar    1  UNL1        0.0007
     23 C          60.6779   86.8535    7.8194 C.ar    1  UNL1        0.0366
     24 C          59.3945   89.5353    6.5230 C.3     1  UNL1        0.2525
     25 O          58.8238   88.6601    7.5993 O.3     1  UNL1       -0.4714
@<TRIPOS>BOND
     1    24    25    1
     2    25    18    1
     3    18    19   ar
     4    19    20   ar
     5    20    21   ar
     6    21    17    1
     7    17     1    1
     8     1     2   ar
     9     2    10    1
    10    10    11    1
    11    11    12    1
    12    12    13    1
    13    13    14    1
    14    14    15    1
    15     2     3   ar
    16     3     4   ar
    17     4     5   ar
    18     5     6   ar
    19     6     7   ar
    20     7     8   ar
    21     8     9   ar
    22    21    22   ar
    23    22    23   ar
    24    23    18   ar
    25     9     1   ar
    26    15    10    1
    27     9     4   ar
    28    12    16    1
@<TRIPOS>MOLECULE
*****
 25 28 0 0 0
SMALL
GASTEIGER

@<TRIPOS>ATOM
      1 N          61.5001   87.8477   11.0522 N.ar    1  UNL1       -0.3100
      2 C          62.0924   86.4923   11.3011 C.ar    1  UNL1        0.1317
      3 N          61.7360   85.6107   10.1409 N.ar    1  UNL1       -0.2300
      4 C          60.9236   86.4214    9.1751 C.ar    1  UNL1        0.0984
      5 C          60.2977   86.0792    7.8556 C.ar    1  UNL1        0.0206
      6 C          59.5260   87.1196    7.0993 C.ar    1  UNL1        0.0016
      7 C          59.3802   88.5022    7.6626 C.ar    1  UNL1        0.0016
      8 C          60.0061   88.8444    8.9821 C.ar    1  UNL1        0.0188
      9 C          60.7778   87.8040    9.7383 C.ar    1  UNL1        0.0789
     10 C          62.8993   86.0891   12.4996 C.3     1  UNL1        0.1199
     11 C          63.5770   87.1353   13.3339 C.3     1  UNL1        0.0871
     12 N          64.3839   86.7321   14.5324 N.3     1  UNL1       -0.2957
     13 C          64.5130   85.2828   14.8966 C.3     1  UNL1        0.0804
     14 C          63.8353   84.2366   14.0623 C.3     1  UNL1        0.0750
     15 S          63.0284   84.6398   12.8638 S.3     1  UNL1       -0.1306
     16 H          63.9703   87.2023   15.3375 H       1  UNL1        0.1233
     17 C          61.6108   89.0381   11.9582 C.3     1  UNL1        0.1339
     18 C          64.7033   92.2045   11.1457 C.ar    1  UNL1        0.1387
     19 C          63.8032   91.7345   10.0417 C.ar    1  UNL1        0.0366
     20 C          62.7723   90.6790   10.3126 C.ar    1  UNL1        0.0007
     21 C          62.6416   90.0935   11.6874 C.ar    1  UNL1        0.0006
     22 C          63.5418   90.5636   12.7914 C.ar    1  UNL1        0.0007
     23 C          64.5726   91.6190   12.5205 C.ar    1  UNL1        0.0366
     24 C          66.2428   94.1169   11.9961 C.3     1  UNL1        0.2525
     25 O          65.7342   93.2599   10.8749 O.3     1  UNL1       -0.4714
@<TRIPOS>BOND
     1    24    25    1
     2    25    18    1
     3    18    19   ar
     4    19    20   ar
     5    20    21   ar
     6    21    17    1
     7    17     1    1
     8     1     2   ar
     9     2    10    1
    10    10    11    1
    11    11    12    1
    12    12    13    1
    13    13    14    1
    14    14    15    1
    15     2     3   ar
    16     3     4   ar
    17     4     5   ar
    18     5     6   ar
    19     6     7   ar
    20     7     8   ar
    21     8     9   ar
    22    21    22   ar
    23    22    23   ar
    24    23    18   ar
    25     9     1   ar
    26    15    10    1
    27     9     4   ar
    28    12    16    1
@<TRIPOS>MOLECULE
*****
 25 28 0 0 0
SMALL
GASTEIGER

@<TRIPOS>ATOM
      1 N          62.8917   86.7476   12.0909 N.ar    1  UNL1       -0.3100
      2 C          63.5932   87.3951   13.2479 C.ar    1  UNL1        0.1317
      3 N          64.0601   86.3104   14.1728 N.ar    1  UNL1       -0.2300
      4 C          63.6471   84.9925   13.5874 C.ar    1  UNL1        0.0984
      5 C          63.8354   83.5814   14.0597 C.ar    1  UNL1        0.0206
      6 C          63.3015   82.4404   13.2454 C.ar    1  UNL1        0.0016
      7 C          62.5793   82.7106   11.9587 C.ar    1  UNL1        0.0016
      8 C          62.3911   84.1218   11.4864 C.ar    1  UNL1        0.0188
      9 C          62.9250   85.2627   12.3007 C.ar    1  UNL1        0.0789
     10 C          63.7928   88.8686   13.4454 C.3     1  UNL1        0.1199
     11 C          63.2122   89.8424   12.4631 C.3     1  UNL1        0.0871
     12 N          63.4118   91.3159   12.6606 N.3     1  UNL1       -0.2957
     13 C          64.1919   91.8156   13.8403 C.3     1  UNL1        0.0804
     14 C          64.7724   90.8419   14.8225 C.3     1  UNL1        0.0750
     15 S          64.5729   89.3684   14.6250 S.3     1  UNL1       -0.1306
     16 H          62.4831   91.7329   12.7236 H       1  UNL1        0.1233
     17 C          62.2665   87.4599   10.9282 C.3     1  UNL1        0.1339
     18 C          61.2295   85.1830    7.1879 C.ar    1  UNL1        0.1387
     19 C          62.6446   85.2041    7.6850 C.ar    1  UNL1        0.0366
     20 C          62.9903   85.9631    8.9318 C.ar    1  UNL1        0.0007
     21 C          61.9209   86.7010    9.6815 C.ar    1  UNL1        0.0006
     22 C          60.5058   86.6799    9.1843 C.ar    1  UNL1        0.0007
     23 C          60.1602   85.9209    7.9375 C.ar    1  UNL1        0.0366
     24 C          61.9529   84.0996    4.9399 C.3     1  UNL1        0.2525
     25 O          60.8839   84.4241    5.9411 O.3     1  UNL1       -0.4714
@<TRIPOS>BOND
     1    24    25    1
     2    25    18    1
     3    18    19   ar
     4    19    20   ar
     5    20    21   ar
     6    21    17    1
     7    17     1    1
     8     1     2   ar
     9     2    10    1
    10    10    11    1
    11    11    12    1
    12    12    13    1
    13    13    14    1
    14    14    15    1
    15     2     3   ar
    16     3     4   ar
    17     4     5   ar
    18     5     6   ar
    19     6     7   ar
    20     7     8   ar
    21     8     9   ar
    22    21    22   ar
    23    22    23   ar
    24    23    18   ar
    25     9     1   ar
    26    15    10    1
    27     9     4   ar
    28    12    16    1
@<TRIPOS>MOLECULE
*****
 25 28 0 0 0
SMALL
GASTEIGER

@<TRIPOS>ATOM
      1 N          62.6497   87.7458   11.6788 N.ar    1  UNL1       -0.3100
      2 C          62.4573   89.1858   12.0521 C.ar    1  UNL1        0.1317
      3 N          61.3846   89.7537   11.1707 N.ar    1  UNL1       -0.2300
      4 C          60.9141   88.6647   10.2527 C.ar    1  UNL1        0.0984
      5 C          59.8748   88.6427    9.1714 C.ar    1  UNL1        0.0206
      6 C          59.6173   87.3798    8.4042 C.ar    1  UNL1        0.0016
      7 C          60.3992   86.1388    8.7182 C.ar    1  UNL1        0.0016
      8 C          61.4386   86.1608    9.7995 C.ar    1  UNL1        0.0188
      9 C          61.6960   87.4237   10.5667 C.ar    1  UNL1        0.0789
     10 C          63.2060   89.9276   13.1194 C.3     1  UNL1        0.1199
     11 C          64.0374   91.1230   12.7593 C.3     1  UNL1        0.0871
     12 N          64.7861   91.8649   13.8266 N.3     1  UNL1       -0.2957
     13 C          64.7035   91.4113   15.2539 C.3     1  UNL1        0.0804
     14 C          63.8721   90.2159   15.6140 C.3     1  UNL1        0.0750
     15 S          63.1233   89.4741   14.5467 S.3     1  UNL1       -0.1306
     16 H          64.4531   92.8287   13.8041 H       1  UNL1        0.1233
     17 C          63.6248   86.7948   12.3073 C.3     1  UNL1        0.1339
     18 C          62.2492   82.7295   13.6604 C.ar    1  UNL1        0.1387
     19 C          62.7070   82.9342   12.2467 C.ar    1  UNL1        0.0366
     20 C          63.1655   84.2893   11.7957 C.ar    1  UNL1        0.0007
     21 C          63.1662   85.4397   12.7583 C.ar    1  UNL1        0.0006
     22 C          62.7085   85.2349   14.1720 C.ar    1  UNL1        0.0007
     23 C          62.2499   83.8798   14.6230 C.ar    1  UNL1        0.0366
     24 C          62.3246   80.1414   13.4443 C.3     1  UNL1        0.2525
     25 O          61.7907   81.3744   14.1114 O.3     1  UNL1       -0.4714
@<TRIPOS>BOND
     1    24    25    1
     2    25    18    1
     3    18    19   ar
     4    19    20   ar
     5    20    21   ar
     6    21    17    1
     7    17     1    1
     8     1     2   ar
     9     2    10    1
    10    10    11    1
    11    11    12    1
    12    12    13    1
    13    13    14    1
    14    14    15    1
    15     2     3   ar
    16     3     4   ar
    17     4     5   ar
    18     5     6   ar
    19     6     7   ar
    20     7     8   ar
    21     8     9   ar
    22    21    22   ar
    23    22    23   ar
    24    23    18   ar
    25     9     1   ar
    26    15    10    1
    27     9     4   ar
    28    12    16    1
