@<TRIPOS>MOLECULE
*****
 40 45 0 0 0
SMALL
GASTEIGER

@<TRIPOS>ATOM
      1 C          62.2571   85.6469   10.5781 C.ar    1  UNL1        0.1636
      2 N          62.7931   86.9246   11.1526 N.ar    1  UNL1       -0.2114
      3 C          62.2901   88.2439   10.6461 C.ar    1  UNL1        0.1409
      4 C          61.2511   88.2855    9.5651 C.ar    1  UNL1        0.0785
      5 S          60.5701   89.4275    8.8709 S.2     1  UNL1       -0.0856
      6 C          59.6132   88.8557    7.8673 C.ar    1  UNL1        0.0251
      7 C          59.7028   87.3602    7.9412 C.ar    1  UNL1        0.0233
      8 C          60.7151   87.0077    8.9905 C.ar    1  UNL1        0.0918
      9 N          61.2180   85.6885    9.4970 N.ar    1  UNL1       -0.2259
     10 C          62.5747   84.5914   16.3979 C.3     1  UNL1        0.0521
     11 C          62.7768   84.1265   14.9861 C.2     1  UNL1        0.0590
     12 C          62.4887   84.9205   13.7465 C.2     1  UNL1        0.0160
     13 C          62.8364   84.0706   12.5604 C.2     1  UNL1        0.0180
     14 C          62.7600   84.3276   11.0845 C.2     1  UNL1        0.0367
     15 C          63.1865   83.2653   10.1152 C.2     1  UNL1       -0.0011
     16 C          63.6894   81.9461   10.6217 C.2     1  UNL1       -0.0197
     17 C          63.7658   81.6891   12.0976 C.3     1  UNL1        0.0717
     18 C          63.3393   82.7513   13.0669 C.2     1  UNL1        0.0631
     19 N          63.3025   82.7859   14.5660 N.2     1  UNL1       -0.2536
     20 N          62.8262   89.5216   11.2207 N.pl3   1  UNL1       -0.2876
     21 C          63.2271   90.6436   10.3096 C.3     1  UNL1        0.1243
     22 C          63.7632   91.9213   10.8842 C.3     1  UNL1        0.1636
     23 O          63.8983   92.0769   12.3700 O.3     1  UNL1       -0.3501
     24 C          63.4974   90.9549   13.2811 C.3     1  UNL1        0.1636
     25 C          62.9613   89.6771   12.7065 C.3     1  UNL1        0.1243
     26 C          58.7229   89.6414    6.9507 C.3     1  UNL1        0.1058
     27 N          59.3198   90.4543    5.8404 N.3     1  UNL1       -0.2661
     28 C          60.7598   90.2669    5.4641 C.3     1  UNL1        0.0899
     29 C          61.3567   91.0798    4.3538 C.3     1  UNL1        0.0900
     30 N          60.5137   92.0802    3.6198 N.3     1  UNL1       -0.2655
     31 C          59.0739   92.2676    3.9961 C.3     1  UNL1        0.0900
     32 C          58.4769   91.4547    5.1064 C.3     1  UNL1        0.0899
     33 C          61.1107   92.8932    2.5095 C.3     1  UNL1        0.1145
     34 C          59.7564   93.4550    2.1927 C.3     1  UNL1        0.0253
     35 C          62.4650   92.3313    2.8262 C.3     1  UNL1        0.0253
     36 C          61.7077   93.7061    1.3992 C.2     1  UNL1        0.2321
     37 N          61.0030   94.9355    0.9072 N.am    1  UNL1       -0.3278
     38 O          63.0093   93.2896    0.7808 O.2     1  UNL1       -0.2740
     39 H          60.1488   95.2089    1.3131 H       1  UNL1        0.1450
     40 H          61.3949   95.4691    0.1785 H       1  UNL1        0.1450
@<TRIPOS>BOND
     1    10    11    1
     2    11    12    2
     3    12    13    1
     4    13    14    2
     5    14     1    1
     6     1     2   ar
     7     2     3   ar
     8     3    20    1
     9    20    21    1
    10    21    22    1
    11    22    23    1
    12    23    24    1
    13    24    25    1
    14     3     4   ar
    15     4     5   ar
    16     5     6   ar
    17     6    26    1
    18    26    27    1
    19    27    28    1
    20    28    29    1
    21    29    30    1
    22    30    33    1
    23    33    34    1
    24    33    35    1
    25    33    36    1
    26    36    37   am
    27    36    38    2
    28    30    31    1
    29    31    32    1
    30     6     7   ar
    31     7     8   ar
    32     8     9   ar
    33    14    15    1
    34    15    16    2
    35    16    17    1
    36    17    18    1
    37    18    19    2
    38    19    11    1
    39    18    13    1
    40     9     1   ar
    41    25    20    1
    42     8     4   ar
    43    32    27    1
    44    37    39    1
    45    37    40    1
@<TRIPOS>MOLECULE
*****
 40 45 0 0 0
SMALL
GASTEIGER

@<TRIPOS>ATOM
      1 C          65.0946   92.3615   11.8537 C.ar    1  UNL1        0.1636
      2 N          63.9263   91.8091   11.0921 N.ar    1  UNL1       -0.2114
      3 C          63.2255   90.5772   11.5834 C.ar    1  UNL1        0.1409
      4 C          63.6929   89.8977   12.8363 C.ar    1  UNL1        0.0785
      5 S          63.2038   88.6775   13.5587 S.2     1  UNL1       -0.0856
      6 C          64.0698   88.4758   14.7667 C.ar    1  UNL1        0.0251
      7 C          65.0942   89.5713   14.7910 C.ar    1  UNL1        0.0233
      8 C          64.8613   90.4501   13.5979 C.ar    1  UNL1        0.0918
      9 N          65.5620   91.6820   13.1066 N.ar    1  UNL1       -0.2259
     10 C          69.5684   91.9305    7.9957 C.3     1  UNL1        0.0521
     11 C          68.6661   92.7807    8.8402 C.2     1  UNL1        0.0590
     12 C          67.5688   92.2838    9.7341 C.2     1  UNL1        0.0160
     13 C          66.9272   93.4731   10.3854 C.2     1  UNL1        0.0180
     14 C          65.7954   93.5934   11.3624 C.2     1  UNL1        0.0367
     15 C          65.3644   94.9455   11.8481 C.2     1  UNL1       -0.0011
     16 C          66.0653   96.1773   11.3568 C.2     1  UNL1       -0.0197
     17 C          67.1971   96.0570   10.3798 C.3     1  UNL1        0.0717
     18 C          67.6281   94.7049    9.8941 C.2     1  UNL1        0.0631
     19 N          68.7027   94.2770    8.9392 N.2     1  UNL1       -0.2536
     20 N          62.0572   90.0249   10.8218 N.pl3   1  UNL1       -0.2876
     21 C          60.7146   90.6857   10.9250 C.3     1  UNL1        0.1243
     22 C          59.5463   90.1334   10.1634 C.3     1  UNL1        0.1636
     23 O          59.7207   88.9202    9.2986 O.3     1  UNL1       -0.3501
     24 C          61.0633   88.2594    9.1955 C.3     1  UNL1        0.1636
     25 C          62.2316   88.8118    9.9571 C.3     1  UNL1        0.1243
     26 C          63.9351   87.3722   15.7738 C.3     1  UNL1        0.1058
     27 N          63.7076   85.9622   15.3154 N.3     1  UNL1       -0.2661
     28 C          64.5655   85.3780   14.2324 C.3     1  UNL1        0.0899
     29 C          64.3380   83.9680   13.7740 C.3     1  UNL1        0.0900
     30 N          63.2526   83.1422   14.3985 N.3     1  UNL1       -0.2655
     31 C          62.3948   83.7264   15.4815 C.3     1  UNL1        0.0900
     32 C          62.6223   85.1364   15.9399 C.3     1  UNL1        0.0899
     33 C          63.0251   81.7322   13.9401 C.3     1  UNL1        0.1145
     34 C          64.3815   81.7216   13.2997 C.3     1  UNL1        0.0253
     35 C          61.6687   81.7428   14.5805 C.3     1  UNL1        0.0253
     36 C          62.7976   80.3222   13.4817 C.2     1  UNL1        0.2321
     37 N          62.6982   80.0167   12.0165 N.am    1  UNL1       -0.3278
     38 O          62.6695   79.2177   14.4885 O.2     1  UNL1       -0.2740
     39 H          62.7823   80.7417   11.3557 H       1  UNL1        0.1450
     40 H          62.5489   79.0913   11.7157 H       1  UNL1        0.1450
@<TRIPOS>BOND
     1    10    11    1
     2    11    12    2
     3    12    13    1
     4    13    14    2
     5    14     1    1
     6     1     2   ar
     7     2     3   ar
     8     3    20    1
     9    20    21    1
    10    21    22    1
    11    22    23    1
    12    23    24    1
    13    24    25    1
    14     3     4   ar
    15     4     5   ar
    16     5     6   ar
    17     6    26    1
    18    26    27    1
    19    27    28    1
    20    28    29    1
    21    29    30    1
    22    30    33    1
    23    33    34    1
    24    33    35    1
    25    33    36    1
    26    36    37   am
    27    36    38    2
    28    30    31    1
    29    31    32    1
    30     6     7   ar
    31     7     8   ar
    32     8     9   ar
    33    14    15    1
    34    15    16    2
    35    16    17    1
    36    17    18    1
    37    18    19    2
    38    19    11    1
    39    18    13    1
    40     9     1   ar
    41    25    20    1
    42     8     4   ar
    43    32    27    1
    44    37    39    1
    45    37    40    1
@<TRIPOS>MOLECULE
*****
 40 45 0 0 0
SMALL
GASTEIGER

@<TRIPOS>ATOM
      1 C          62.7852   89.5596   12.5354 C.ar    1  UNL1        0.1636
      2 N          63.0187   88.0958   12.3057 N.ar    1  UNL1       -0.2114
      3 C          62.3770   87.4082   11.1372 C.ar    1  UNL1        0.1409
      4 C          61.5017   88.1844   10.1984 C.ar    1  UNL1        0.0785
      5 S          60.7408   87.7808    8.9703 S.2     1  UNL1       -0.0856
      6 C          60.0371   88.9951    8.4411 C.ar    1  UNL1        0.0251
      7 C          60.3630   90.1493    9.3421 C.ar    1  UNL1        0.0233
      8 C          61.2681   89.6483   10.4282 C.ar    1  UNL1        0.0918
      9 N          61.9099   90.3358   11.5967 N.ar    1  UNL1       -0.2259
     10 C          66.5994   94.0087   11.6736 C.3     1  UNL1        0.0521
     11 C          65.8561   93.1058   12.6131 C.2     1  UNL1        0.0590
     12 C          64.9001   92.0189   12.2200 C.2     1  UNL1        0.0160
     13 C          64.3915   91.3728   13.4746 C.2     1  UNL1        0.0180
     14 C          63.4270   90.2472   13.7040 C.2     1  UNL1        0.0367
     15 C          63.1042   89.8091   15.1018 C.2     1  UNL1       -0.0011
     16 C          63.7460   90.4967   16.2702 C.2     1  UNL1       -0.0197
     17 C          64.7105   91.6224   16.0408 C.3     1  UNL1        0.0717
     18 C          65.0333   92.0604   14.6430 C.2     1  UNL1        0.0631
     19 N          65.9385   93.1315   14.1106 N.2     1  UNL1       -0.2536
     20 N          62.6105   85.9444   10.9075 N.pl3   1  UNL1       -0.2876
     21 C          62.4829   84.9768   12.0465 C.3     1  UNL1        0.1243
     22 C          62.7164   83.5130   11.8168 C.3     1  UNL1        0.1636
     23 O          63.0776   83.0168   10.4480 O.3     1  UNL1       -0.3501
     24 C          63.2052   83.9845    9.3090 C.3     1  UNL1        0.1636
     25 C          62.9717   85.4483    9.5388 C.3     1  UNL1        0.1243
     26 C          59.1611   89.0464    7.2244 C.3     1  UNL1        0.1058
     27 N          59.4866   89.9906    6.1052 N.3     1  UNL1       -0.2661
     28 C          58.4094   90.8490    5.5110 C.3     1  UNL1        0.0899
     29 C          58.7348   91.7932    4.3919 C.3     1  UNL1        0.0900
     30 N          60.1374   91.8791    3.8669 N.3     1  UNL1       -0.2655
     31 C          61.2144   91.0207    4.4611 C.3     1  UNL1        0.0900
     32 C          60.8890   90.0765    5.5803 C.3     1  UNL1        0.0899
     33 C          60.4628   92.8233    2.7478 C.3     1  UNL1        0.1145
     34 C          61.9264   92.5780    2.9663 C.3     1  UNL1        0.0253
     35 C          58.9992   93.0687    2.5292 C.3     1  UNL1        0.0253
     36 C          60.7882   93.7675    1.6286 C.2     1  UNL1        0.2321
     37 N          59.8558   94.8971    1.3053 N.am    1  UNL1       -0.3278
     38 O          62.0462   93.5822    0.8327 O.2     1  UNL1       -0.2740
     39 H          59.0302   95.0188    1.8276 H       1  UNL1        0.1450
     40 H          60.0694   95.5168    0.5707 H       1  UNL1        0.1450
@<TRIPOS>BOND
     1    10    11    1
     2    11    12    2
     3    12    13    1
     4    13    14    2
     5    14     1    1
     6     1     2   ar
     7     2     3   ar
     8     3    20    1
     9    20    21    1
    10    21    22    1
    11    22    23    1
    12    23    24    1
    13    24    25    1
    14     3     4   ar
    15     4     5   ar
    16     5     6   ar
    17     6    26    1
    18    26    27    1
    19    27    28    1
    20    28    29    1
    21    29    30    1
    22    30    33    1
    23    33    34    1
    24    33    35    1
    25    33    36    1
    26    36    37   am
    27    36    38    2
    28    30    31    1
    29    31    32    1
    30     6     7   ar
    31     7     8   ar
    32     8     9   ar
    33    14    15    1
    34    15    16    2
    35    16    17    1
    36    17    18    1
    37    18    19    2
    38    19    11    1
    39    18    13    1
    40     9     1   ar
    41    25    20    1
    42     8     4   ar
    43    32    27    1
    44    37    39    1
    45    37    40    1
@<TRIPOS>MOLECULE
*****
 40 45 0 0 0
SMALL
GASTEIGER

@<TRIPOS>ATOM
      1 C          64.9670   90.3362   13.9935 C.ar    1  UNL1        0.1636
      2 N          64.0107   90.1686   12.8502 N.ar    1  UNL1       -0.2114
      3 C          63.2977   88.8635   12.6538 C.ar    1  UNL1        0.1409
      4 C          63.5413   87.7260   13.6008 C.ar    1  UNL1        0.0785
      5 S          62.9880   86.3330   13.6597 S.2     1  UNL1       -0.0856
      6 C          63.6025   85.6397   14.8394 C.ar    1  UNL1        0.0251
      7 C          64.5355   86.6042   15.5096 C.ar    1  UNL1        0.0233
      8 C          64.4977   87.8936   14.7442 C.ar    1  UNL1        0.0918
      9 N          65.2106   89.1987   14.9405 N.ar    1  UNL1       -0.2259
     10 C          66.0933   93.8644    9.3710 C.3     1  UNL1        0.0521
     11 C          66.1812   93.5948   10.8440 C.2     1  UNL1        0.0590
     12 C          65.6562   92.3805   11.5509 C.2     1  UNL1        0.0160
     13 C          65.9602   92.5274   13.0125 C.2     1  UNL1        0.0180
     14 C          65.6799   91.6413   14.1899 C.2     1  UNL1        0.0367
     15 C          66.1126   92.0603   15.5636 C.2     1  UNL1       -0.0011
     16 C          66.8254   93.3653   15.7600 C.2     1  UNL1       -0.0197
     17 C          67.1057   94.2514   14.5825 C.3     1  UNL1        0.0717
     18 C          66.6731   93.8324   13.2088 C.2     1  UNL1        0.0631
     19 N          66.8097   94.4921   11.8686 N.2     1  UNL1       -0.2536
     20 N          62.3414   88.6959   11.5105 N.pl3   1  UNL1       -0.2876
     21 C          62.4937   87.5384   10.5687 C.3     1  UNL1        0.1243
     22 C          61.5373   87.3708    9.4254 C.3     1  UNL1        0.1636
     23 O          60.4285   88.3608    9.2238 O.3     1  UNL1       -0.3501
     24 C          60.2762   89.5183   10.1656 C.3     1  UNL1        0.1636
     25 C          61.2326   89.6859   11.3090 C.3     1  UNL1        0.1243
     26 C          63.3315   84.2294   15.2728 C.3     1  UNL1        0.1058
     27 N          63.2067   83.1408   14.2484 N.3     1  UNL1       -0.2661
     28 C          62.1061   82.1278   14.3608 C.3     1  UNL1        0.0899
     29 C          61.9814   81.0392   13.3363 C.3     1  UNL1        0.0900
     30 N          62.9572   80.9637   12.1996 N.3     1  UNL1       -0.2655
     31 C          64.0577   81.9767   12.0872 C.3     1  UNL1        0.0900
     32 C          64.1824   83.0652   13.1117 C.3     1  UNL1        0.0899
     33 C          62.8324   79.8751   11.1751 C.3     1  UNL1        0.1145
     34 C          62.4029   78.9166   12.2460 C.3     1  UNL1        0.0253
     35 C          63.2619   80.8336   10.1043 C.3     1  UNL1        0.0253
     36 C          62.7076   78.7865   10.1507 C.2     1  UNL1        0.2321
     37 N          63.0873   77.3786   10.5023 N.am    1  UNL1       -0.3278
     38 O          62.2031   79.1059    8.7746 O.2     1  UNL1       -0.2740
     39 H          63.4184   77.1690   11.4055 H       1  UNL1        0.1450
     40 H          63.0054   76.6642    9.8300 H       1  UNL1        0.1450
@<TRIPOS>BOND
     1    10    11    1
     2    11    12    2
     3    12    13    1
     4    13    14    2
     5    14     1    1
     6     1     2   ar
     7     2     3   ar
     8     3    20    1
     9    20    21    1
    10    21    22    1
    11    22    23    1
    12    23    24    1
    13    24    25    1
    14     3     4   ar
    15     4     5   ar
    16     5     6   ar
    17     6    26    1
    18    26    27    1
    19    27    28    1
    20    28    29    1
    21    29    30    1
    22    30    33    1
    23    33    34    1
    24    33    35    1
    25    33    36    1
    26    36    37   am
    27    36    38    2
    28    30    31    1
    29    31    32    1
    30     6     7   ar
    31     7     8   ar
    32     8     9   ar
    33    14    15    1
    34    15    16    2
    35    16    17    1
    36    17    18    1
    37    18    19    2
    38    19    11    1
    39    18    13    1
    40     9     1   ar
    41    25    20    1
    42     8     4   ar
    43    32    27    1
    44    37    39    1
    45    37    40    1
@<TRIPOS>MOLECULE
*****
 40 45 0 0 0
SMALL
GASTEIGER

@<TRIPOS>ATOM
      1 C          64.4057   90.9112   12.1182 C.ar    1  UNL1        0.1636
      2 N          63.4384   90.4583   11.0650 N.ar    1  UNL1       -0.2114
      3 C          62.8169   89.0960   11.1534 C.ar    1  UNL1        0.1409
      4 C          63.1627   88.1865   12.2950 C.ar    1  UNL1        0.0785
      5 S          62.7124   86.7991   12.6449 S.2     1  UNL1       -0.0856
      6 C          63.4014   86.3946   13.9144 C.ar    1  UNL1        0.0251
      7 C          64.2775   87.5319   14.3491 C.ar    1  UNL1        0.0233
      8 C          64.1300   88.6394   13.3482 C.ar    1  UNL1        0.0918
      9 N          64.7515   90.0017   13.2598 N.ar    1  UNL1       -0.2259
     10 C          67.8401   92.9317   16.5008 C.3     1  UNL1        0.0521
     11 C          67.1964   93.1385   15.1617 C.2     1  UNL1        0.0590
     12 C          66.3153   92.1579   14.4461 C.2     1  UNL1        0.0160
     13 C          65.8953   92.7756   13.1453 C.2     1  UNL1        0.0180
     14 C          65.0272   92.2736   12.0298 C.2     1  UNL1        0.0367
     15 C          64.7805   93.1338   10.8261 C.2     1  UNL1       -0.0011
     16 C          65.4020   94.4961   10.7377 C.2     1  UNL1       -0.0197
     17 C          66.2701   94.9982   11.8532 C.3     1  UNL1        0.0717
     18 C          66.5168   94.1379   13.0570 C.2     1  UNL1        0.0631
     19 N          67.3209   94.3622   14.3032 N.2     1  UNL1       -0.2536
     20 N          61.8496   88.6431   10.1001 N.pl3   1  UNL1       -0.2876
     21 C          61.9570   87.2608    9.5278 C.3     1  UNL1        0.1243
     22 C          60.9897   86.8079    8.4745 C.3     1  UNL1        0.1636
     23 O          59.9151   87.7374    7.9937 O.3     1  UNL1       -0.3501
     24 C          59.8077   89.1198    8.5661 C.3     1  UNL1        0.1636
     25 C          60.7750   89.5726    9.6193 C.3     1  UNL1        0.1243
     26 C          63.2423   85.0829   14.6246 C.3     1  UNL1        0.1058
     27 N          63.1557   83.8093   13.8370 N.3     1  UNL1       -0.2661
     28 C          62.1770   82.7452   14.2369 C.3     1  UNL1        0.0899
     29 C          62.0905   81.4715   13.4493 C.3     1  UNL1        0.0900
     30 N          62.9827   81.2620   12.2617 N.3     1  UNL1       -0.2655
     31 C          63.9613   82.3260   11.8619 C.3     1  UNL1        0.0900
     32 C          64.0479   83.5997   12.6495 C.3     1  UNL1        0.0899
     33 C          62.8961   79.9883   11.4741 C.3     1  UNL1        0.1145
     34 C          63.2909   80.7299   10.2315 C.3     1  UNL1        0.0253
     35 C          62.5013   79.2467   12.7167 C.3     1  UNL1        0.0253
     36 C          62.8096   78.7147   10.6865 C.2     1  UNL1        0.2321
     37 N          62.7840   78.7602    9.1874 N.am    1  UNL1       -0.3278
     38 O          62.7486   77.3955   11.3980 O.2     1  UNL1       -0.2740
     39 H          62.8240   79.6259    8.7204 H       1  UNL1        0.1450
     40 H          62.7272   77.9242    8.6705 H       1  UNL1        0.1450
@<TRIPOS>BOND
     1    10    11    1
     2    11    12    2
     3    12    13    1
     4    13    14    2
     5    14     1    1
     6     1     2   ar
     7     2     3   ar
     8     3    20    1
     9    20    21    1
    10    21    22    1
    11    22    23    1
    12    23    24    1
    13    24    25    1
    14     3     4   ar
    15     4     5   ar
    16     5     6   ar
    17     6    26    1
    18    26    27    1
    19    27    28    1
    20    28    29    1
    21    29    30    1
    22    30    33    1
    23    33    34    1
    24    33    35    1
    25    33    36    1
    26    36    37   am
    27    36    38    2
    28    30    31    1
    29    31    32    1
    30     6     7   ar
    31     7     8   ar
    32     8     9   ar
    33    14    15    1
    34    15    16    2
    35    16    17    1
    36    17    18    1
    37    18    19    2
    38    19    11    1
    39    18    13    1
    40     9     1   ar
    41    25    20    1
    42     8     4   ar
    43    32    27    1
    44    37    39    1
    45    37    40    1
@<TRIPOS>MOLECULE
*****
 40 45 0 0 0
SMALL
GASTEIGER

@<TRIPOS>ATOM
      1 C          62.4050   86.1641   11.9933 C.ar    1  UNL1        0.1636
      2 N          63.0386   87.5213   12.0735 N.ar    1  UNL1       -0.2114
      3 C          62.5627   88.6254   11.1765 C.ar    1  UNL1        0.1409
      4 C          61.4532   88.3723   10.1993 C.ar    1  UNL1        0.0785
      5 S          60.7784   89.2589    9.1950 S.2     1  UNL1       -0.0856
      6 C          59.7278   88.4496    8.4941 C.ar    1  UNL1        0.0251
      7 C          59.7533   87.0628    9.0652 C.ar    1  UNL1        0.0233
      8 C          60.8196   87.0149   10.1191 C.ar    1  UNL1        0.0918
      9 N          61.2955   85.9109   11.0161 N.ar    1  UNL1       -0.2259
     10 C          63.0563   80.6637    9.8940 C.3     1  UNL1        0.0521
     11 C          63.1445   81.6307   11.0374 C.2     1  UNL1        0.0590
     12 C          62.8114   83.0922   10.9839 C.2     1  UNL1        0.0160
     13 C          63.0424   83.6706   12.3485 C.2     1  UNL1        0.0180
     14 C          62.8809   85.0600   12.8903 C.2     1  UNL1        0.0367
     15 C          63.1952   85.3453   14.3289 C.2     1  UNL1       -0.0011
     16 C          63.6711   84.2412   15.2258 C.2     1  UNL1       -0.0197
     17 C          63.8326   82.8518   14.6841 C.3     1  UNL1        0.0717
     18 C          63.5183   82.5665   13.2454 C.2     1  UNL1        0.0631
     19 N          63.5814   81.3058   12.4352 N.2     1  UNL1       -0.2536
     20 N          63.1962   89.9827   11.2568 N.pl3   1  UNL1       -0.2876
     21 C          63.2327   90.8661   10.0451 C.3     1  UNL1        0.1243
     22 C          63.8663   92.2234   10.1253 C.3     1  UNL1        0.1636
     23 O          64.4634   92.6972   11.4173 O.3     1  UNL1       -0.3501
     24 C          64.4269   91.8137   12.6289 C.3     1  UNL1        0.1636
     25 C          63.7933   90.4564   12.5487 C.3     1  UNL1        0.1243
     26 C          58.8124   88.9408    7.4120 C.3     1  UNL1        0.1058
     27 N          59.3411   89.8382    6.3326 N.3     1  UNL1       -0.2661
     28 C          58.4406   90.8535    5.6934 C.3     1  UNL1        0.0899
     29 C          58.9693   91.7509    4.6140 C.3     1  UNL1        0.0900
     30 N          60.3984   91.6329    4.1736 N.3     1  UNL1       -0.2655
     31 C          61.2988   90.6177    4.8127 C.3     1  UNL1        0.0900
     32 C          60.7701   89.7203    5.8922 C.3     1  UNL1        0.0899
     33 C          60.9270   92.5303    3.0941 C.3     1  UNL1        0.1145
     34 C          62.2810   91.8998    3.2331 C.3     1  UNL1        0.0253
     35 C          59.5731   93.1608    2.9552 C.3     1  UNL1        0.0253
     36 C          61.4557   93.4277    2.0147 C.2     1  UNL1        0.2321
     37 N          60.5722   93.8236    0.8690 N.am    1  UNL1       -0.3278
     38 O          62.8679   93.9292    2.0810 O.2     1  UNL1       -0.2740
     39 H          59.6454   93.4944    0.8255 H       1  UNL1        0.1450
     40 H          60.9192   94.4126    0.1605 H       1  UNL1        0.1450
@<TRIPOS>BOND
     1    10    11    1
     2    11    12    2
     3    12    13    1
     4    13    14    2
     5    14     1    1
     6     1     2   ar
     7     2     3   ar
     8     3    20    1
     9    20    21    1
    10    21    22    1
    11    22    23    1
    12    23    24    1
    13    24    25    1
    14     3     4   ar
    15     4     5   ar
    16     5     6   ar
    17     6    26    1
    18    26    27    1
    19    27    28    1
    20    28    29    1
    21    29    30    1
    22    30    33    1
    23    33    34    1
    24    33    35    1
    25    33    36    1
    26    36    37   am
    27    36    38    2
    28    30    31    1
    29    31    32    1
    30     6     7   ar
    31     7     8   ar
    32     8     9   ar
    33    14    15    1
    34    15    16    2
    35    16    17    1
    36    17    18    1
    37    18    19    2
    38    19    11    1
    39    18    13    1
    40     9     1   ar
    41    25    20    1
    42     8     4   ar
    43    32    27    1
    44    37    39    1
    45    37    40    1
@<TRIPOS>MOLECULE
*****
 40 45 0 0 0
SMALL
GASTEIGER

@<TRIPOS>ATOM
      1 C          70.7332   72.3745   13.2544 C.ar    1  UNL1        0.1636
      2 N          71.0301   72.3146   14.7235 N.ar    1  UNL1       -0.2114
      3 C          71.6203   73.5057   15.4186 C.ar    1  UNL1        0.1409
      4 C          71.9135   74.7566   14.6445 C.ar    1  UNL1        0.0785
      5 S          72.4902   76.0790   15.0551 S.2     1  UNL1       -0.0856
      6 C          72.5498   76.9562   13.8398 C.ar    1  UNL1        0.0251
      7 C          72.0098   76.1759   12.6781 C.ar    1  UNL1        0.0233
      8 C          71.6165   74.8165   13.1754 C.ar    1  UNL1        0.0918
      9 N          71.0264   73.6254   12.4803 N.ar    1  UNL1       -0.2259
     10 C          72.5886   70.8346    7.8441 C.3     1  UNL1        0.0521
     11 C          71.6970   70.5872    9.0248 C.2     1  UNL1        0.0590
     12 C          71.6504   71.4054   10.2811 C.2     1  UNL1        0.0160
     13 C          70.6201   70.8020   11.1892 C.2     1  UNL1        0.0180
     14 C          70.1431   71.1834   12.5593 C.2     1  UNL1        0.0367
     15 C          69.0760   70.3736   13.2342 C.2     1  UNL1       -0.0011
     16 C          68.4859   69.1826   12.5391 C.2     1  UNL1       -0.0197
     17 C          68.9630   68.8013   11.1691 C.3     1  UNL1        0.0717
     18 C          70.0301   69.6110   10.4941 C.2     1  UNL1        0.0631
     19 N          70.6956   69.4782    9.1565 N.2     1  UNL1       -0.2536
     20 N          71.9171   73.4458   16.8876 N.pl3   1  UNL1       -0.2876
     21 C          73.3288   73.5895   17.3740 C.3     1  UNL1        0.1243
     22 C          73.6257   73.5296   18.8431 C.3     1  UNL1        0.1636
     23 O          72.5109   73.3260   19.8259 O.3     1  UNL1       -0.3501
     24 C          71.0992   73.1823   19.3395 C.3     1  UNL1        0.1636
     25 C          70.8024   73.2422   17.8704 C.3     1  UNL1        0.1243
     26 C          73.0598   78.3661   13.7941 C.3     1  UNL1        0.1058
     27 N          73.0009   79.1439   12.5129 N.3     1  UNL1       -0.2661
     28 C          72.7224   80.6176   12.5422 C.3     1  UNL1        0.0899
     29 C          72.6635   81.3953   11.2609 C.3     1  UNL1        0.0900
     30 N          72.8830   80.6993    9.9503 N.3     1  UNL1       -0.2655
     31 C          73.1614   79.2257    9.9211 C.3     1  UNL1        0.0900
     32 C          73.2203   78.4480   11.2023 C.3     1  UNL1        0.0899
     33 C          72.8241   81.4771    8.6691 C.3     1  UNL1        0.1145
     34 C          72.1118   82.5908    9.3778 C.3     1  UNL1        0.0253
     35 C          73.5364   80.3634    7.9603 C.3     1  UNL1        0.0253
     36 C          72.7651   82.2548    7.3878 C.2     1  UNL1        0.2321
     37 N          73.6312   81.8581    6.2291 N.am    1  UNL1       -0.3278
     38 O          71.8401   83.4293    7.2652 O.2     1  UNL1       -0.2740
     39 H          74.2383   81.0873    6.3096 H       1  UNL1        0.1450
     40 H          73.5925   82.3686    5.3882 H       1  UNL1        0.1450
@<TRIPOS>BOND
     1    10    11    1
     2    11    12    2
     3    12    13    1
     4    13    14    2
     5    14     1    1
     6     1     2   ar
     7     2     3   ar
     8     3    20    1
     9    20    21    1
    10    21    22    1
    11    22    23    1
    12    23    24    1
    13    24    25    1
    14     3     4   ar
    15     4     5   ar
    16     5     6   ar
    17     6    26    1
    18    26    27    1
    19    27    28    1
    20    28    29    1
    21    29    30    1
    22    30    33    1
    23    33    34    1
    24    33    35    1
    25    33    36    1
    26    36    37   am
    27    36    38    2
    28    30    31    1
    29    31    32    1
    30     6     7   ar
    31     7     8   ar
    32     8     9   ar
    33    14    15    1
    34    15    16    2
    35    16    17    1
    36    17    18    1
    37    18    19    2
    38    19    11    1
    39    18    13    1
    40     9     1   ar
    41    25    20    1
    42     8     4   ar
    43    32    27    1
    44    37    39    1
    45    37    40    1
