@<TRIPOS>MOLECULE
*****
 26 29 0 0 0
SMALL
GASTEIGER

@<TRIPOS>ATOM
      1 C          61.8672   86.6818   10.4469 C.3     1  UNL1        0.0991
      2 C          61.5242   84.7609    6.3919 C.ar    1  UNL1       -0.0000
      3 C          62.8584   84.8429    7.0726 C.ar    1  UNL1       -0.0003
      4 C          62.9727   85.4832    8.4242 C.ar    1  UNL1       -0.0029
      5 C          61.7529   86.0415    9.0952 C.ar    1  UNL1       -0.0061
      6 C          60.4187   85.9594    8.4146 C.ar    1  UNL1       -0.0029
      7 C          60.3044   85.3191    7.0630 C.ar    1  UNL1       -0.0003
      8 N          61.1638   87.9770   10.7251 N.3     1  UNL1       -0.2690
      9 C          59.9924   88.0083   11.6615 C.3     1  UNL1        0.0724
     10 C          59.2890   89.3036   11.9397 C.3     1  UNL1        0.0174
     11 C          59.7570   90.5677   11.2816 C.3     1  UNL1        0.0029
     12 C          60.9284   90.5364   10.3452 C.3     1  UNL1        0.0174
     13 C          61.6318   89.2411   10.0670 C.3     1  UNL1        0.0724
     14 C          62.6849   86.0268   11.5203 C.3     1  UNL1        0.0991
     15 C          62.9102   84.5441   11.4920 C.ar    1  UNL1       -0.0061
     16 C          62.1034   83.6458   12.3822 C.ar    1  UNL1       -0.0029
     17 C          62.3287   82.1630   12.3539 C.ar    1  UNL1       -0.0003
     18 C          63.3608   81.5786   11.4355 C.ar    1  UNL1       -0.0000
     19 C          64.1675   82.4769   10.5454 C.ar    1  UNL1       -0.0003
     20 C          63.9422   83.9596   10.5737 C.ar    1  UNL1       -0.0029
     21 N          63.2774   86.8545   12.6221 N.3     1  UNL1       -0.2690
     22 C          63.3321   88.3479   12.4919 C.3     1  UNL1        0.0724
     23 C          63.9245   89.1756   13.5936 C.3     1  UNL1        0.0174
     24 C          64.4624   88.5100   14.8256 C.3     1  UNL1        0.0029
     25 C          64.4077   87.0167   14.9558 C.3     1  UNL1        0.0174
     26 C          63.8152   86.1889   13.8540 C.3     1  UNL1        0.0724
@<TRIPOS>BOND
     1     2     3   ar
     2     3     4   ar
     3     4     5   ar
     4     5     1    1
     5     1    14    1
     6    14    15    1
     7    15    16   ar
     8    16    17   ar
     9    17    18   ar
    10    18    19   ar
    11    19    20   ar
    12    14    21    1
    13    21    22    1
    14    22    23    1
    15    23    24    1
    16    24    25    1
    17    25    26    1
    18     1     8    1
    19     8     9    1
    20     9    10    1
    21    10    11    1
    22    11    12    1
    23    12    13    1
    24     5     6   ar
    25     6     7   ar
    26     7     2   ar
    27    20    15   ar
    28    26    21    1
    29    13     8    1
@<TRIPOS>MOLECULE
*****
 26 29 0 0 0
SMALL
GASTEIGER

@<TRIPOS>ATOM
      1 C          61.8688   86.6837   10.4435 C.3     1  UNL1        0.0991
      2 C          61.5059   84.7776    6.3833 C.ar    1  UNL1       -0.0000
      3 C          60.2897   85.3350    7.0617 C.ar    1  UNL1       -0.0003
      4 C          60.4106   85.9703    8.4151 C.ar    1  UNL1       -0.0029
      5 C          61.7478   86.0483    9.0901 C.ar    1  UNL1       -0.0061
      6 C          62.9641   85.4910    8.4118 C.ar    1  UNL1       -0.0029
      7 C          62.8431   84.8557    7.0584 C.ar    1  UNL1       -0.0003
      8 N          61.1672   87.9782   10.7298 N.3     1  UNL1       -0.2690
      9 C          59.9941   88.0048   11.6642 C.3     1  UNL1        0.0724
     10 C          59.2925   89.2994   11.9504 C.3     1  UNL1        0.0174
     11 C          59.7640   90.5673   11.3023 C.3     1  UNL1        0.0029
     12 C          60.9371   90.5406   10.3679 C.3     1  UNL1        0.0174
     13 C          61.6387   89.2461   10.0816 C.3     1  UNL1        0.0724
     14 C          62.6914   86.0245   11.5107 C.3     1  UNL1        0.0991
     15 C          62.9214   84.5428   11.4723 C.ar    1  UNL1       -0.0061
     16 C          63.9500   83.9672   10.5444 C.ar    1  UNL1       -0.0029
     17 C          64.1800   82.4855   10.5061 C.ar    1  UNL1       -0.0003
     18 C          63.3815   81.5793   11.3956 C.ar    1  UNL1       -0.0000
     19 C          62.3530   82.1548   12.3235 C.ar    1  UNL1       -0.0003
     20 C          62.1230   83.6366   12.3618 C.ar    1  UNL1       -0.0029
     21 N          63.2840   86.8472   12.6163 N.3     1  UNL1       -0.2690
     22 C          63.8245   86.1756   13.8438 C.3     1  UNL1        0.0724
     23 C          64.4171   86.9981   14.9493 C.3     1  UNL1        0.0174
     24 C          64.4691   88.4923   14.8274 C.3     1  UNL1        0.0029
     25 C          63.9286   89.1639   13.5998 C.3     1  UNL1        0.0174
     26 C          63.3360   88.3412   12.4943 C.3     1  UNL1        0.0724
@<TRIPOS>BOND
     1     2     3   ar
     2     3     4   ar
     3     4     5   ar
     4     5     1    1
     5     1    14    1
     6    14    15    1
     7    15    16   ar
     8    16    17   ar
     9    17    18   ar
    10    18    19   ar
    11    19    20   ar
    12    14    21    1
    13    21    22    1
    14    22    23    1
    15    23    24    1
    16    24    25    1
    17    25    26    1
    18     1     8    1
    19     8     9    1
    20     9    10    1
    21    10    11    1
    22    11    12    1
    23    12    13    1
    24     5     6   ar
    25     6     7   ar
    26     7     2   ar
    27    20    15   ar
    28    26    21    1
    29    13     8    1
@<TRIPOS>MOLECULE
*****
 26 29 0 0 0
SMALL
GASTEIGER

@<TRIPOS>ATOM
      1 C          62.6915   86.0132   11.5219 C.3     1  UNL1        0.0991
      2 C          63.3594   81.5644   11.4110 C.ar    1  UNL1       -0.0000
      3 C          62.3281   82.1453   12.3324 C.ar    1  UNL1       -0.0003
      4 C          62.1055   83.6282   12.3693 C.ar    1  UNL1       -0.0029
      5 C          62.9142   84.5303   11.4849 C.ar    1  UNL1       -0.0061
      6 C          63.9455   83.9495   10.5636 C.ar    1  UNL1       -0.0029
      7 C          64.1681   82.4665   10.5266 C.ar    1  UNL1       -0.0003
      8 N          63.2875   86.8338   12.6271 N.3     1  UNL1       -0.2690
      9 C          63.8277   86.1603   13.8537 C.3     1  UNL1        0.0724
     10 C          64.4237   86.9810   14.9589 C.3     1  UNL1        0.0174
     11 C          64.4794   88.4750   14.8375 C.3     1  UNL1        0.0029
     12 C          63.9391   89.1484   13.6109 C.3     1  UNL1        0.0174
     13 C          63.3432   88.3279   12.5057 C.3     1  UNL1        0.0724
     14 C          61.8730   86.6756   10.4537 C.3     1  UNL1        0.0991
     15 C          61.7546   86.0428    9.0989 C.ar    1  UNL1       -0.0061
     16 C          62.9715   85.4833    8.4234 C.ar    1  UNL1       -0.0029
     17 C          62.8531   84.8505    7.0686 C.ar    1  UNL1       -0.0003
     18 C          61.5177   84.7771    6.3893 C.ar    1  UNL1       -0.0000
     19 C          60.3009   85.3365    7.0647 C.ar    1  UNL1       -0.0003
     20 C          60.4193   85.9694    8.4195 C.ar    1  UNL1       -0.0029
     21 N          61.1728   87.9709   10.7402 N.3     1  UNL1       -0.2690
     22 C          61.6535   89.2404   10.1021 C.3     1  UNL1        0.0724
     23 C          60.9533   90.5357   10.3886 C.3     1  UNL1        0.0174
     24 C          59.7725   90.5614   11.3133 C.3     1  UNL1        0.0029
     25 C          59.2918   89.2919   11.9514 C.3     1  UNL1        0.0174
     26 C          59.9920   87.9966   11.6648 C.3     1  UNL1        0.0724
@<TRIPOS>BOND
     1     2     3   ar
     2     3     4   ar
     3     4     5   ar
     4     5     1    1
     5     1    14    1
     6    14    15    1
     7    15    16   ar
     8    16    17   ar
     9    17    18   ar
    10    18    19   ar
    11    19    20   ar
    12    14    21    1
    13    21    22    1
    14    22    23    1
    15    23    24    1
    16    24    25    1
    17    25    26    1
    18     1     8    1
    19     8     9    1
    20     9    10    1
    21    10    11    1
    22    11    12    1
    23    12    13    1
    24     5     6   ar
    25     6     7   ar
    26     7     2   ar
    27    20    15   ar
    28    26    21    1
    29    13     8    1
@<TRIPOS>MOLECULE
*****
 26 29 0 0 0
SMALL
GASTEIGER

@<TRIPOS>ATOM
      1 C          62.6855   86.0146   11.5118 C.3     1  UNL1        0.0991
      2 C          63.3701   81.5686   11.3898 C.ar    1  UNL1       -0.0000
      3 C          64.1670   82.4749   10.4990 C.ar    1  UNL1       -0.0003
      4 C          63.9388   83.9569   10.5397 C.ar    1  UNL1       -0.0029
      5 C          62.9137   84.5326   11.4711 C.ar    1  UNL1       -0.0061
      6 C          62.1168   83.6263   12.3619 C.ar    1  UNL1       -0.0029
      7 C          62.3450   82.1443   12.3213 C.ar    1  UNL1       -0.0003
      8 N          63.2797   86.8348   12.6181 N.3     1  UNL1       -0.2690
      9 C          63.3349   88.3289   12.4976 C.3     1  UNL1        0.0724
     10 C          63.9292   89.1492   13.6041 C.3     1  UNL1        0.0174
     11 C          64.4682   88.4753   14.8309 C.3     1  UNL1        0.0029
     12 C          64.4131   86.9812   14.9514 C.3     1  UNL1        0.0174
     13 C          63.8189   86.1609   13.8451 C.3     1  UNL1        0.0724
     14 C          61.8631   86.6763   10.4461 C.3     1  UNL1        0.0991
     15 C          61.7409   86.0434    9.0917 C.ar    1  UNL1       -0.0061
     16 C          62.9565   85.4867    8.4116 C.ar    1  UNL1       -0.0029
     17 C          62.8343   84.8537    7.0572 C.ar    1  UNL1       -0.0003
     18 C          61.4965   84.7775    6.3829 C.ar    1  UNL1       -0.0000
     19 C          60.2810   85.3341    7.0630 C.ar    1  UNL1       -0.0003
     20 C          60.4032   85.9671    8.4174 C.ar    1  UNL1       -0.0029
     21 N          61.1628   87.9711   10.7349 N.3     1  UNL1       -0.2690
     22 C          59.9863   87.9962   11.6651 C.3     1  UNL1        0.0724
     23 C          59.2861   89.2909   11.9538 C.3     1  UNL1        0.0174
     24 C          59.7622   90.5605   11.3123 C.3     1  UNL1        0.0029
     25 C          60.9387   90.5353   10.3821 C.3     1  UNL1        0.0174
     26 C          61.6390   89.2406   10.0934 C.3     1  UNL1        0.0724
@<TRIPOS>BOND
     1     2     3   ar
     2     3     4   ar
     3     4     5   ar
     4     5     1    1
     5     1    14    1
     6    14    15    1
     7    15    16   ar
     8    16    17   ar
     9    17    18   ar
    10    18    19   ar
    11    19    20   ar
    12    14    21    1
    13    21    22    1
    14    22    23    1
    15    23    24    1
    16    24    25    1
    17    25    26    1
    18     1     8    1
    19     8     9    1
    20     9    10    1
    21    10    11    1
    22    11    12    1
    23    12    13    1
    24     5     6   ar
    25     6     7   ar
    26     7     2   ar
    27    20    15   ar
    28    26    21    1
    29    13     8    1
@<TRIPOS>MOLECULE
*****
 26 29 0 0 0
SMALL
GASTEIGER

@<TRIPOS>ATOM
      1 C          62.6528   86.4295   11.6703 C.3     1  UNL1        0.0991
      2 C          60.5812   85.9633    7.7028 C.ar    1  UNL1       -0.0000
      3 C          59.8476   86.5619    8.8662 C.ar    1  UNL1       -0.0003
      4 C          60.5382   86.7173   10.1887 C.ar    1  UNL1       -0.0029
      5 C          61.9623   86.2741   10.3478 C.ar    1  UNL1       -0.0061
      6 C          62.6959   85.6755    9.1844 C.ar    1  UNL1       -0.0029
      7 C          62.0054   85.5201    7.8619 C.ar    1  UNL1       -0.0003
      8 N          63.0167   87.7961   12.1704 N.3     1  UNL1       -0.2690
      9 C          62.5871   89.0133   11.4063 C.3     1  UNL1        0.0724
     10 C          62.9510   90.3799   11.9065 C.3     1  UNL1        0.0174
     11 C          63.7445   90.5292   13.1707 C.3     1  UNL1        0.0029
     12 C          64.1740   89.3120   13.9347 C.3     1  UNL1        0.0174
     13 C          63.8102   87.9454   13.4346 C.3     1  UNL1        0.0724
     14 C          62.9795   85.2184   12.4927 C.3     1  UNL1        0.0991
     15 C          63.1888   83.8920   11.8242 C.ar    1  UNL1       -0.0061
     16 C          62.3715   82.7051   12.2404 C.ar    1  UNL1       -0.0029
     17 C          62.5808   81.3787   11.5719 C.ar    1  UNL1       -0.0003
     18 C          63.6075   81.2393   10.4871 C.ar    1  UNL1       -0.0000
     19 C          64.4248   82.4262   10.0710 C.ar    1  UNL1       -0.0003
     20 C          64.2154   83.7526   10.7395 C.ar    1  UNL1       -0.0029
     21 N          63.0969   85.3336   13.9837 N.3     1  UNL1       -0.2690
     22 C          64.4347   85.5863   14.6134 C.3     1  UNL1        0.0724
     23 C          64.5521   85.7015   16.1043 C.3     1  UNL1        0.0174
     24 C          63.3317   85.5640   16.9656 C.3     1  UNL1        0.0029
     25 C          61.9939   85.3113   16.3360 C.3     1  UNL1        0.0174
     26 C          61.8766   85.1961   14.8450 C.3     1  UNL1        0.0724
@<TRIPOS>BOND
     1     2     3   ar
     2     3     4   ar
     3     4     5   ar
     4     5     1    1
     5     1    14    1
     6    14    15    1
     7    15    16   ar
     8    16    17   ar
     9    17    18   ar
    10    18    19   ar
    11    19    20   ar
    12    14    21    1
    13    21    22    1
    14    22    23    1
    15    23    24    1
    16    24    25    1
    17    25    26    1
    18     1     8    1
    19     8     9    1
    20     9    10    1
    21    10    11    1
    22    11    12    1
    23    12    13    1
    24     5     6   ar
    25     6     7   ar
    26     7     2   ar
    27    20    15   ar
    28    26    21    1
    29    13     8    1
