@<TRIPOS>MOLECULE
*****
 25 27 0 0 0
SMALL
GASTEIGER

@<TRIPOS>ATOM
      1 C          63.2691   89.9402   12.5809 C.ar    1  UNL1        0.1374
      2 C          64.1935   91.1147   12.4550 C.ar    1  UNL1        0.0612
      3 C          64.7969   91.7292   13.6832 C.ar    1  UNL1        0.1483
      4 C          64.4758   91.1691   15.0371 C.ar    1  UNL1        0.0522
      5 C          63.5514   89.9945   15.1630 C.ar    1  UNL1        0.0625
      6 C          63.2304   89.4345   16.5170 C.3     1  UNL1        0.0522
      7 N          62.9480   89.3801   13.9349 N.ar    1  UNL1       -0.2449
      8 N          62.0695   87.9508   11.4175 N.am    1  UNL1       -0.2646
      9 C          62.6657   89.3257   11.3527 C.2     1  UNL1        0.2684
     10 O          62.6584   90.0861   10.0598 O.2     1  UNL1       -0.2681
     11 H          62.0743   87.4517   12.2661 H       1  UNL1        0.1566
     12 C          62.4930   84.8695    7.2550 C.3     1  UNL1        0.0521
     13 C          61.6779   85.7956    8.1081 C.ar    1  UNL1        0.0608
     14 C          60.2594   86.1072    7.7331 C.ar    1  UNL1        0.0148
     15 C          59.4442   87.0334    8.5863 C.ar    1  UNL1        0.0041
     16 C          60.0476   87.6479    9.8144 C.ar    1  UNL1        0.0345
     17 C          61.4661   87.3363   10.1894 C.ar    1  UNL1        0.1340
     18 N          62.2812   86.4101    9.3362 N.ar    1  UNL1       -0.2348
     19 O          65.7213   92.9038   13.5574 O.3     1  UNL1       -0.4502
     20 C          66.3709   93.2093   12.2403 C.ar    1  UNL1        0.1835
     21 C          66.0088   94.4615   11.4980 C.ar    1  UNL1        0.1396
     22 N          66.6583   94.7671   10.1809 N.ar    1  UNL1       -0.2192
     23 C          67.6699   93.8203    9.6060 C.ar    1  UNL1        0.1991
     24 N          68.0319   92.5681   10.3482 N.ar    1  UNL1       -0.2192
     25 C          67.3824   92.2626   11.6653 C.ar    1  UNL1        0.1396
@<TRIPOS>BOND
     1    12    13    1
     2    13    14   ar
     3    14    15   ar
     4    15    16   ar
     5    16    17   ar
     6    17     8    1
     7     8     9   am
     8     9    10    2
     9     9     1    1
    10     1     2   ar
    11     2     3   ar
    12     3    19    1
    13    19    20    1
    14    20    21   ar
    15    21    22   ar
    16    22    23   ar
    17    23    24   ar
    18    24    25   ar
    19     3     4   ar
    20     4     5   ar
    21     5     6    1
    22     5     7   ar
    23    17    18   ar
    24    18    13   ar
    25     7     1   ar
    26    25    20   ar
    27     8    11    1
@<TRIPOS>MOLECULE
*****
 25 27 0 0 0
SMALL
GASTEIGER

@<TRIPOS>ATOM
      1 C          61.5693   87.9390   10.9346 C.ar    1  UNL1        0.1374
      2 C          62.6689   88.8592   10.4943 C.ar    1  UNL1        0.0612
      3 C          62.4639   90.3446   10.5318 C.ar    1  UNL1        0.1483
      4 C          61.1592   90.9098   11.0097 C.ar    1  UNL1        0.0522
      5 C          60.0596   89.9896   11.4500 C.ar    1  UNL1        0.0625
      6 C          58.7549   90.5548   11.9279 C.3     1  UNL1        0.0522
      7 N          60.2646   88.5042   11.4125 N.ar    1  UNL1       -0.2449
      8 N          62.6129   85.7854   11.9461 N.am    1  UNL1       -0.2646
      9 C          61.7743   86.4535   10.8971 C.2     1  UNL1        0.2684
     10 O          61.1407   85.6362    9.8105 O.2     1  UNL1       -0.2681
     11 H          63.0287   86.3218   12.6592 H       1  UNL1        0.1566
     12 C          61.9785   81.0994   14.1000 C.3     1  UNL1        0.0521
     13 C          62.5007   81.9569   12.9855 C.ar    1  UNL1        0.0608
     14 C          63.2278   81.3290   11.8336 C.ar    1  UNL1        0.0148
     15 C          63.7500   82.1865   10.7191 C.ar    1  UNL1        0.0041
     16 C          63.5450   83.6720   10.7566 C.ar    1  UNL1        0.0345
     17 C          62.8179   84.2999   11.9086 C.ar    1  UNL1        0.1340
     18 N          62.2957   83.4423   13.0230 N.ar    1  UNL1       -0.2348
     19 O          63.5636   91.2649   10.0915 O.3     1  UNL1       -0.4502
     20 C          64.4524   91.9131   11.1112 C.ar    1  UNL1        0.1835
     21 C          64.3287   91.5408   12.5590 C.ar    1  UNL1        0.1396
     22 N          65.2176   92.1890   13.5787 N.ar    1  UNL1       -0.2192
     23 C          66.2302   93.2096   13.1505 C.ar    1  UNL1        0.1991
     24 N          66.3539   93.5818   11.7027 N.ar    1  UNL1       -0.2192
     25 C          65.4650   92.9336   10.6831 C.ar    1  UNL1        0.1396
@<TRIPOS>BOND
     1    12    13    1
     2    13    14   ar
     3    14    15   ar
     4    15    16   ar
     5    16    17   ar
     6    17     8    1
     7     8     9   am
     8     9    10    2
     9     9     1    1
    10     1     2   ar
    11     2     3   ar
    12     3    19    1
    13    19    20    1
    14    20    21   ar
    15    21    22   ar
    16    22    23   ar
    17    23    24   ar
    18    24    25   ar
    19     3     4   ar
    20     4     5   ar
    21     5     6    1
    22     5     7   ar
    23    17    18   ar
    24    18    13   ar
    25     7     1   ar
    26    25    20   ar
    27     8    11    1
@<TRIPOS>MOLECULE
*****
 25 27 0 0 0
SMALL
GASTEIGER

@<TRIPOS>ATOM
      1 C          63.6350   88.2976   13.1652 C.ar    1  UNL1        0.1374
      2 C          64.1572   89.2311   14.2167 C.ar    1  UNL1        0.0612
      3 C          64.1799   90.7092   13.9630 C.ar    1  UNL1        0.1483
      4 C          63.6803   91.2540   12.6578 C.ar    1  UNL1        0.0522
      5 C          63.1581   90.3205   11.6062 C.ar    1  UNL1        0.0625
      6 C          62.6585   90.8652   10.3009 C.3     1  UNL1        0.0522
      7 N          63.1354   88.8423   11.8599 N.ar    1  UNL1       -0.2449
      8 N          62.7029   85.9349   12.6183 N.am    1  UNL1       -0.2646
      9 C          63.6123   86.8193   13.4188 C.2     1  UNL1        0.2684
     10 O          64.4989   86.2256   14.4730 O.2     1  UNL1       -0.2681
     11 H          62.1210   86.3246   11.9264 H       1  UNL1        0.1566
     12 C          63.1752   81.0624   10.8760 C.3     1  UNL1        0.0521
     13 C          62.9164   82.0204   12.0008 C.ar    1  UNL1        0.0608
     14 C          62.6348   81.5002   13.3792 C.ar    1  UNL1        0.0148
     15 C          62.3759   82.4582   14.5040 C.ar    1  UNL1        0.0041
     16 C          62.3986   83.9364   14.2504 C.ar    1  UNL1        0.0345
     17 C          62.6802   84.4566   12.8720 C.ar    1  UNL1        0.1340
     18 N          62.9391   83.4986   11.7472 N.ar    1  UNL1       -0.2348
     19 O          64.7022   91.6428   15.0146 O.3     1  UNL1       -0.4502
     20 C          66.1438   92.0570   15.0007 C.ar    1  UNL1        0.1835
     21 C          66.7335   92.7604   16.1871 C.ar    1  UNL1        0.1396
     22 N          68.1752   93.1746   16.1732 N.ar    1  UNL1       -0.2192
     23 C          69.0271   92.8854   14.9729 C.ar    1  UNL1        0.1991
     24 N          68.4373   92.1820   13.7866 N.ar    1  UNL1       -0.2192
     25 C          66.9957   91.7678   13.8005 C.ar    1  UNL1        0.1396
@<TRIPOS>BOND
     1    12    13    1
     2    13    14   ar
     3    14    15   ar
     4    15    16   ar
     5    16    17   ar
     6    17     8    1
     7     8     9   am
     8     9    10    2
     9     9     1    1
    10     1     2   ar
    11     2     3   ar
    12     3    19    1
    13    19    20    1
    14    20    21   ar
    15    21    22   ar
    16    22    23   ar
    17    23    24   ar
    18    24    25   ar
    19     3     4   ar
    20     4     5   ar
    21     5     6    1
    22     5     7   ar
    23    17    18   ar
    24    18    13   ar
    25     7     1   ar
    26    25    20   ar
    27     8    11    1
@<TRIPOS>MOLECULE
*****
 25 27 0 0 0
SMALL
GASTEIGER

@<TRIPOS>ATOM
      1 C          64.7817   90.8698   14.1194 C.ar    1  UNL1        0.1374
      2 C          64.5433   91.3718   12.7262 C.ar    1  UNL1        0.0612
      3 C          65.3041   92.5599   12.2166 C.ar    1  UNL1        0.1483
      4 C          66.3033   93.2460   13.1003 C.ar    1  UNL1        0.0522
      5 C          66.5417   92.7440   14.4936 C.ar    1  UNL1        0.0625
      6 C          67.5409   93.4300   15.3773 C.3     1  UNL1        0.0522
      7 N          65.7809   91.5559   15.0031 N.ar    1  UNL1       -0.2449
      8 N          64.6967   88.3467   14.7330 N.am    1  UNL1       -0.2646
      9 C          64.0209   89.6817   14.6290 C.2     1  UNL1        0.2684
     10 O          62.5843   89.8287   15.0345 O.2     1  UNL1       -0.2681
     11 H          65.6397   88.2502   14.4669 H       1  UNL1        0.1566
     12 C          62.8225   83.5547   14.0086 C.3     1  UNL1        0.0521
     13 C          62.9989   84.7626   14.8804 C.ar    1  UNL1        0.0608
     14 C          62.4144   84.7824   16.2617 C.ar    1  UNL1        0.0148
     15 C          62.5908   85.9902   17.1334 C.ar    1  UNL1        0.0041
     16 C          63.3515   87.1783   16.6239 C.ar    1  UNL1        0.0345
     17 C          63.9359   87.1585   15.2426 C.ar    1  UNL1        0.1340
     18 N          63.7596   85.9507   14.3709 N.ar    1  UNL1       -0.2348
     19 O          65.0657   93.0620   10.8234 O.3     1  UNL1       -0.4502
     20 C          65.8684   94.2130   10.2933 C.ar    1  UNL1        0.1835
     21 C          65.4203   95.6212   10.5505 C.ar    1  UNL1        0.1396
     22 N          66.2230   96.7722   10.0205 N.ar    1  UNL1       -0.2192
     23 C          67.4737   96.5150    9.2333 C.ar    1  UNL1        0.1991
     24 N          67.9217   95.1067    8.9762 N.ar    1  UNL1       -0.2192
     25 C          67.1190   93.9557    9.5062 C.ar    1  UNL1        0.1396
@<TRIPOS>BOND
     1    12    13    1
     2    13    14   ar
     3    14    15   ar
     4    15    16   ar
     5    16    17   ar
     6    17     8    1
     7     8     9   am
     8     9    10    2
     9     9     1    1
    10     1     2   ar
    11     2     3   ar
    12     3    19    1
    13    19    20    1
    14    20    21   ar
    15    21    22   ar
    16    22    23   ar
    17    23    24   ar
    18    24    25   ar
    19     3     4   ar
    20     4     5   ar
    21     5     6    1
    22     5     7   ar
    23    17    18   ar
    24    18    13   ar
    25     7     1   ar
    26    25    20   ar
    27     8    11    1
@<TRIPOS>MOLECULE
*****
 25 27 0 0 0
SMALL
GASTEIGER

@<TRIPOS>ATOM
      1 C          61.7416   87.8499   11.3971 C.ar    1  UNL1        0.1374
      2 C          62.9754   88.6979   11.4902 C.ar    1  UNL1        0.0612
      3 C          62.8536   90.1861   11.6322 C.ar    1  UNL1        0.1483
      4 C          61.4981   90.8265   11.6811 C.ar    1  UNL1        0.0522
      5 C          60.2642   89.9786   11.5880 C.ar    1  UNL1        0.0625
      6 C          58.9087   90.6189   11.6369 C.3     1  UNL1        0.0522
      7 N          60.3860   88.4903   11.4460 N.ar    1  UNL1       -0.2449
      8 N          62.8235   85.6016   12.1213 N.am    1  UNL1       -0.2646
      9 C          61.8633   86.3616   11.2551 C.2     1  UNL1        0.2684
     10 O          61.0247   85.6333   10.2469 O.2     1  UNL1       -0.2681
     11 H          63.3738   86.0796   12.7831 H       1  UNL1        0.1566
     12 C          61.9031   80.8184   13.9308 C.3     1  UNL1        0.0521
     13 C          62.4850   81.7217   12.8841 C.ar    1  UNL1        0.0608
     14 C          63.1885   81.1367   11.6955 C.ar    1  UNL1        0.0148
     15 C          63.7704   82.0400   10.6488 C.ar    1  UNL1        0.0041
     16 C          63.6487   83.5283   10.7908 C.ar    1  UNL1        0.0345
     17 C          62.9452   84.1132   11.9794 C.ar    1  UNL1        0.1340
     18 N          62.3633   83.2099   13.0260 N.ar    1  UNL1       -0.2348
     19 O          64.0875   91.0341   11.7252 O.3     1  UNL1       -0.4502
     20 C          64.5816   91.4948   13.0645 C.ar    1  UNL1        0.1835
     21 C          65.6650   92.5289   13.1490 C.ar    1  UNL1        0.1396
     22 N          66.1591   92.9896   14.4883 N.ar    1  UNL1       -0.2192
     23 C          65.5699   92.4162   15.7430 C.ar    1  UNL1        0.1991
     24 N          64.4866   91.3822   15.6583 N.ar    1  UNL1       -0.2192
     25 C          63.9924   90.9215   14.3191 C.ar    1  UNL1        0.1396
@<TRIPOS>BOND
     1    12    13    1
     2    13    14   ar
     3    14    15   ar
     4    15    16   ar
     5    16    17   ar
     6    17     8    1
     7     8     9   am
     8     9    10    2
     9     9     1    1
    10     1     2   ar
    11     2     3   ar
    12     3    19    1
    13    19    20    1
    14    20    21   ar
    15    21    22   ar
    16    22    23   ar
    17    23    24   ar
    18    24    25   ar
    19     3     4   ar
    20     4     5   ar
    21     5     6    1
    22     5     7   ar
    23    17    18   ar
    24    18    13   ar
    25     7     1   ar
    26    25    20   ar
    27     8    11    1
@<TRIPOS>MOLECULE
*****
 25 27 0 0 0
SMALL
GASTEIGER

@<TRIPOS>ATOM
      1 C          62.3399   89.6018   10.6483 C.ar    1  UNL1        0.1374
      2 C          62.2820   88.3004   11.3919 C.ar    1  UNL1        0.0612
      3 C          61.3432   87.2206   10.9418 C.ar    1  UNL1        0.1483
      4 C          60.4624   87.4421    9.7481 C.ar    1  UNL1        0.0522
      5 C          60.5203   88.7435    9.0044 C.ar    1  UNL1        0.0625
      6 C          59.6394   88.9650    7.8107 C.3     1  UNL1        0.0522
      7 N          61.4590   89.8233    9.4545 N.ar    1  UNL1       -0.2449
      8 N          63.8969   90.6170   12.4634 N.am    1  UNL1       -0.2646
      9 C          63.2787   90.6817   11.0984 C.2     1  UNL1        0.2684
     10 O          63.5991   91.8263   10.1833 O.2     1  UNL1       -0.2681
     11 H          63.6866   89.8658   13.0640 H       1  UNL1        0.1566
     12 C          66.7617   92.8215   16.1962 C.3     1  UNL1        0.0521
     13 C          66.2681   92.7992   14.7799 C.ar    1  UNL1        0.0608
     14 C          66.7132   93.8567   13.8138 C.ar    1  UNL1        0.0148
     15 C          66.2196   93.8343   12.3975 C.ar    1  UNL1        0.0041
     16 C          65.2808   92.7545   11.9474 C.ar    1  UNL1        0.0345
     17 C          64.8357   91.6970   12.9135 C.ar    1  UNL1        0.1340
     18 N          65.3294   91.7193   14.3298 N.ar    1  UNL1       -0.2348
     19 O          61.2853   85.9191   11.6855 O.3     1  UNL1       -0.4502
     20 C          62.3870   84.9139   11.5248 C.ar    1  UNL1        0.1835
     21 C          63.0032   84.2767   12.7350 C.ar    1  UNL1        0.1396
     22 N          64.1049   83.2715   12.5744 N.ar    1  UNL1       -0.2192
     23 C          64.5904   82.9034   11.2036 C.ar    1  UNL1        0.1991
     24 N          63.9742   83.5406    9.9936 N.ar    1  UNL1       -0.2192
     25 C          62.8725   84.5458   10.1542 C.ar    1  UNL1        0.1396
@<TRIPOS>BOND
     1    12    13    1
     2    13    14   ar
     3    14    15   ar
     4    15    16   ar
     5    16    17   ar
     6    17     8    1
     7     8     9   am
     8     9    10    2
     9     9     1    1
    10     1     2   ar
    11     2     3   ar
    12     3    19    1
    13    19    20    1
    14    20    21   ar
    15    21    22   ar
    16    22    23   ar
    17    23    24   ar
    18    24    25   ar
    19     3     4   ar
    20     4     5   ar
    21     5     6    1
    22     5     7   ar
    23    17    18   ar
    24    18    13   ar
    25     7     1   ar
    26    25    20   ar
    27     8    11    1
@<TRIPOS>MOLECULE
*****
 25 27 0 0 0
SMALL
GASTEIGER

@<TRIPOS>ATOM
      1 C          64.0571   88.4981   15.1872 C.ar    1  UNL1        0.1374
      2 C          64.5544   87.3001   14.4341 C.ar    1  UNL1        0.0612
      3 C          64.3289   85.9225   14.9830 C.ar    1  UNL1        0.1483
      4 C          63.6060   85.7430   16.2850 C.ar    1  UNL1        0.0522
      5 C          63.1087   86.9411   17.0381 C.ar    1  UNL1        0.0625
      6 C          62.3858   86.7616   18.3401 C.3     1  UNL1        0.0522
      7 N          63.3342   88.3186   16.4892 N.ar    1  UNL1       -0.2449
      8 N          65.6747   90.3417   14.3301 N.am    1  UNL1       -0.2646
      9 C          64.2827   89.8758   14.6383 C.2     1  UNL1        0.2684
     10 O          63.1161   90.7875   14.3976 O.2     1  UNL1       -0.2681
     11 H          66.4404   89.7433   14.4880 H       1  UNL1        0.1566
     12 C          65.4393   93.7045   10.3757 C.3     1  UNL1        0.0521
     13 C          65.7825   93.4007   11.8040 C.ar    1  UNL1        0.0608
     14 C          66.3513   94.4746   12.6833 C.ar    1  UNL1        0.0148
     15 C          66.6945   94.1708   14.1116 C.ar    1  UNL1        0.0041
     16 C          66.4690   92.7933   14.6605 C.ar    1  UNL1        0.0345
     17 C          65.9003   91.7194   13.7812 C.ar    1  UNL1        0.1340
     18 N          65.5570   92.0231   12.3529 N.ar    1  UNL1       -0.2348
     19 O          64.8262   84.7243   14.2299 O.3     1  UNL1       -0.4502
     20 C          63.8732   83.6317   13.8450 C.ar    1  UNL1        0.1835
     21 C          63.2977   82.7327   14.8989 C.ar    1  UNL1        0.1396
     22 N          62.3447   81.6402   14.5140 N.ar    1  UNL1       -0.2192
     23 C          61.9673   81.4466   13.0751 C.ar    1  UNL1        0.1991
     24 N          62.5427   82.3456   12.0213 N.ar    1  UNL1       -0.2192
     25 C          63.4957   83.4382   12.4062 C.ar    1  UNL1        0.1396
@<TRIPOS>BOND
     1    12    13    1
     2    13    14   ar
     3    14    15   ar
     4    15    16   ar
     5    16    17   ar
     6    17     8    1
     7     8     9   am
     8     9    10    2
     9     9     1    1
    10     1     2   ar
    11     2     3   ar
    12     3    19    1
    13    19    20    1
    14    20    21   ar
    15    21    22   ar
    16    22    23   ar
    17    23    24   ar
    18    24    25   ar
    19     3     4   ar
    20     4     5   ar
    21     5     6    1
    22     5     7   ar
    23    17    18   ar
    24    18    13   ar
    25     7     1   ar
    26    25    20   ar
    27     8    11    1
@<TRIPOS>MOLECULE
*****
 25 27 0 0 0
SMALL
GASTEIGER

@<TRIPOS>ATOM
      1 C          63.7756   86.5181   15.0102 C.ar    1  UNL1        0.1374
      2 C          64.0626   87.8973   14.4949 C.ar    1  UNL1        0.0612
      3 C          63.8479   89.0886   15.3807 C.ar    1  UNL1        0.1483
      4 C          63.3461   88.9008   16.7817 C.ar    1  UNL1        0.0522
      5 C          63.0590   87.5216   17.2970 C.ar    1  UNL1        0.0625
      6 C          62.5572   87.3338   18.6980 C.3     1  UNL1        0.0522
      7 N          63.2738   86.3303   16.4112 N.ar    1  UNL1       -0.2449
      8 N          62.9135   84.8954   13.1734 N.am    1  UNL1       -0.2646
      9 C          63.9903   85.3267   14.1244 C.2     1  UNL1        0.2684
     10 O          65.2819   84.5667   14.1896 O.2     1  UNL1       -0.2681
     11 H          62.0658   85.3942   13.1306 H       1  UNL1        0.1566
     12 C          62.5667   79.7759   12.3546 C.3     1  UNL1        0.0521
     13 C          62.9548   81.1442   11.8783 C.ar    1  UNL1        0.0608
     14 C          63.5576   81.3213   10.5162 C.ar    1  UNL1        0.0148
     15 C          63.9457   82.6896   10.0399 C.ar    1  UNL1        0.0041
     16 C          63.7310   83.8810   10.9256 C.ar    1  UNL1        0.0345
     17 C          63.1282   83.7040   12.2876 C.ar    1  UNL1        0.1340
     18 N          62.7401   82.3356   12.7640 N.ar    1  UNL1       -0.2348
     19 O          64.1349   90.4678   14.8654 O.3     1  UNL1       -0.4502
     20 C          63.9231   90.7856   13.4148 C.ar    1  UNL1        0.1835
     21 C          64.8851   91.6843   12.6957 C.ar    1  UNL1        0.1396
     22 N          64.6733   92.0021   11.2452 N.ar    1  UNL1       -0.2192
     23 C          63.4995   91.4213   10.5137 C.ar    1  UNL1        0.1991
     24 N          62.5376   90.5227   11.2328 N.ar    1  UNL1       -0.2192
     25 C          62.7494   90.2049   12.6834 C.ar    1  UNL1        0.1396
@<TRIPOS>BOND
     1    12    13    1
     2    13    14   ar
     3    14    15   ar
     4    15    16   ar
     5    16    17   ar
     6    17     8    1
     7     8     9   am
     8     9    10    2
     9     9     1    1
    10     1     2   ar
    11     2     3   ar
    12     3    19    1
    13    19    20    1
    14    20    21   ar
    15    21    22   ar
    16    22    23   ar
    17    23    24   ar
    18    24    25   ar
    19     3     4   ar
    20     4     5   ar
    21     5     6    1
    22     5     7   ar
    23    17    18   ar
    24    18    13   ar
    25     7     1   ar
    26    25    20   ar
    27     8    11    1
@<TRIPOS>MOLECULE
*****
 25 27 0 0 0
SMALL
GASTEIGER

@<TRIPOS>ATOM
      1 C          63.8365   86.8412   14.7790 C.ar    1  UNL1        0.1374
      2 C          64.0841   88.1941   14.1805 C.ar    1  UNL1        0.0612
      3 C          63.8781   89.4289   15.0067 C.ar    1  UNL1        0.1483
      4 C          63.4244   89.3108   16.4316 C.ar    1  UNL1        0.0522
      5 C          63.1767   87.9579   17.0302 C.ar    1  UNL1        0.0625
      6 C          62.7230   87.8398   18.4550 C.3     1  UNL1        0.0522
      7 N          63.3828   86.7231   16.2039 N.ar    1  UNL1       -0.2449
      8 N          62.9529   85.1227   13.0424 N.am    1  UNL1       -0.2646
      9 C          64.0425   85.6063   13.9527 C.2     1  UNL1        0.2684
     10 O          65.3381   84.8551   14.0369 O.2     1  UNL1       -0.2681
     11 H          62.1026   85.6157   12.9871 H       1  UNL1        0.1566
     12 C          62.5692   79.9718   12.4754 C.3     1  UNL1        0.0521
     13 C          62.9671   81.3124   11.9326 C.ar    1  UNL1        0.0608
     14 C          63.5709   81.4181   10.5637 C.ar    1  UNL1        0.0148
     15 C          63.9688   82.7586   10.0209 C.ar    1  UNL1        0.0041
     16 C          63.7628   83.9935   10.8471 C.ar    1  UNL1        0.0345
     17 C          63.1589   83.8878   12.2161 C.ar    1  UNL1        0.1340
     18 N          62.7611   82.5472   12.7588 N.ar    1  UNL1       -0.2348
     19 O          64.1258   90.7818   14.4082 O.3     1  UNL1       -0.4502
     20 C          65.3775   91.5349   14.7488 C.ar    1  UNL1        0.1835
     21 C          66.5025   91.6065   13.7592 C.ar    1  UNL1        0.1396
     22 N          67.7543   92.3595   14.0998 N.ar    1  UNL1       -0.2192
     23 C          67.8810   93.0411   15.4301 C.ar    1  UNL1        0.1991
     24 N          66.7560   92.9695   16.4196 N.ar    1  UNL1       -0.2192
     25 C          65.5042   92.2164   16.0790 C.ar    1  UNL1        0.1396
@<TRIPOS>BOND
     1    12    13    1
     2    13    14   ar
     3    14    15   ar
     4    15    16   ar
     5    16    17   ar
     6    17     8    1
     7     8     9   am
     8     9    10    2
     9     9     1    1
    10     1     2   ar
    11     2     3   ar
    12     3    19    1
    13    19    20    1
    14    20    21   ar
    15    21    22   ar
    16    22    23   ar
    17    23    24   ar
    18    24    25   ar
    19     3     4   ar
    20     4     5   ar
    21     5     6    1
    22     5     7   ar
    23    17    18   ar
    24    18    13   ar
    25     7     1   ar
    26    25    20   ar
    27     8    11    1
