@<TRIPOS>MOLECULE
*****
 36 39 0 0 0
SMALL
GASTEIGER

@<TRIPOS>ATOM
      1 N          63.0654   90.9138   11.4151 N.am    1  UNL1       -0.2438
      2 C          63.6040   91.6344   10.2149 C.3     1  UNL1        0.1009
      3 C          64.7577   92.5813   10.3638 C.3     1  UNL1        0.0662
      4 C          65.3729   92.8077   11.7130 C.3     1  UNL1        0.1600
      5 O          64.8343   92.0871   12.9133 O.3     1  UNL1       -0.4374
      6 C          63.6805   91.1401   12.7644 C.2     1  UNL1        0.4051
      7 O          63.1419   90.4196   13.9646 O.2     1  UNL1       -0.2262
      8 C          66.2283   93.7165   10.8809 C.ar    1  UNL1        0.0138
      9 C          66.1873   95.1990   11.1060 C.ar    1  UNL1       -0.0010
     10 C          67.0427   96.1078   10.2739 C.ar    1  UNL1       -0.0002
     11 C          67.9391   95.5341    9.2168 C.ar    1  UNL1       -0.0000
     12 C          67.9801   94.0517    8.9918 C.ar    1  UNL1       -0.0002
     13 C          67.1247   93.1428    9.8239 C.ar    1  UNL1       -0.0010
     14 C          61.9116   89.9669   11.2662 C.3     1  UNL1        0.1010
     15 C          62.0940   88.5090   11.5687 C.ar    1  UNL1       -0.0042
     16 C          63.1715   88.0684   12.5147 C.ar    1  UNL1       -0.0027
     17 C          63.3538   86.6106   12.8172 C.ar    1  UNL1       -0.0003
     18 C          62.4588   85.5934   12.1736 C.ar    1  UNL1        0.0002
     19 C          61.3813   86.0340   11.2276 C.ar    1  UNL1       -0.0003
     20 C          61.1990   87.4918   10.9252 C.ar    1  UNL1       -0.0027
     21 C          62.6412   84.1356   12.4762 C.ar    1  UNL1        0.0062
     22 C          62.6738   83.6633   13.8995 C.ar    1  UNL1        0.0189
     23 C          62.8562   82.2054   14.2020 C.ar    1  UNL1        0.0784
     24 N          63.0060   81.2199   13.0812 N.ar    1  UNL1       -0.2922
     25 C          63.1884   79.7621   13.3836 C.3     1  UNL1        0.1336
     26 C          62.9734   81.6922   11.6578 C.ar    1  UNL1        0.2610
     27 O          63.1232   80.7067   10.5369 O.2     1  UNL1       -0.2670
     28 C          62.7910   83.1500   11.3553 C.ar    1  UNL1        0.0608
     29 C          59.3942   90.4047   11.7363 C.3     1  UNL1        0.0021
     30 C          60.5756   90.4777   10.8147 C.3     1  UNL1        0.0245
     31 C          66.2851   93.3497   12.7732 C.3     1  UNL1        0.0714
     32 C          66.9549   92.4146   13.7360 C.3     1  UNL1        0.0922
     33 C          66.2166   93.0566   14.8731 C.3     1  UNL1        0.0294
     34 C          67.6932   91.7727   12.5990 C.3     1  UNL1        0.0294
     35 O          67.6247   91.4796   14.6989 O.3     1  UNL1       -0.3866
     36 H          67.3189   91.6695   15.5996 H       1  UNL1        0.2102
@<TRIPOS>BOND
     1    29    30    1
     2    14    30    1
     3    14    15    1
     4    15    16   ar
     5    16    17   ar
     6    17    18   ar
     7    18    21    1
     8    21    22   ar
     9    22    23   ar
    10    23    24   ar
    11    24    25    1
    12    24    26   ar
    13    26    27    2
    14    26    28   ar
    15    18    19   ar
    16    19    20   ar
    17    14     1    1
    18     1     2    1
    19     2     3    1
    20     3     4    1
    21     4    31    1
    22    31    32    1
    23    32    33    1
    24    32    34    1
    25    32    35    1
    26     4     8    1
    27     8     9   ar
    28     9    10   ar
    29    10    11   ar
    30    11    12   ar
    31    12    13   ar
    32     4     5    1
    33     5     6    1
    34     6     7    2
    35    20    15   ar
    36     6     1   am
    37    28    21   ar
    38    13     8   ar
    39    35    36    1
@<TRIPOS>MOLECULE
*****
 36 39 0 0 0
SMALL
GASTEIGER

@<TRIPOS>ATOM
      1 N          63.4766   90.4921   11.8402 N.am    1  UNL1       -0.2438
      2 C          64.1553   90.2662   13.1586 C.3     1  UNL1        0.1009
      3 C          65.3045   91.1381   13.5698 C.3     1  UNL1        0.0662
      4 C          65.7750   92.2360   12.6625 C.3     1  UNL1        0.1600
      5 O          65.0963   92.4620   11.3440 O.3     1  UNL1       -0.4374
      6 C          63.9471   91.5901   10.9328 C.2     1  UNL1        0.4051
      7 O          63.2684   91.8160    9.6144 O.2     1  UNL1       -0.2262
      8 C          66.7326   92.4126   13.8035 C.ar    1  UNL1        0.0138
      9 C          66.2396   92.9263   15.1237 C.ar    1  UNL1       -0.0010
     10 C          67.1973   93.1030   16.2647 C.ar    1  UNL1       -0.0002
     11 C          68.6478   92.7658   16.0853 C.ar    1  UNL1       -0.0000
     12 C          69.1408   92.2521   14.7651 C.ar    1  UNL1       -0.0002
     13 C          68.1832   92.0755   13.6241 C.ar    1  UNL1       -0.0010
     14 C          62.3274   89.6202   11.4290 C.3     1  UNL1        0.1010
     15 C          62.3861   88.1403   11.6670 C.ar    1  UNL1       -0.0042
     16 C          61.5619   87.2120   10.8251 C.ar    1  UNL1       -0.0027
     17 C          61.6207   85.7322   11.0631 C.ar    1  UNL1       -0.0003
     18 C          62.5037   85.1807   12.1430 C.ar    1  UNL1        0.0002
     19 C          63.3279   86.1090   12.9849 C.ar    1  UNL1       -0.0003
     20 C          63.2691   87.5888   12.7469 C.ar    1  UNL1       -0.0027
     21 C          62.5624   83.7008   12.3810 C.ar    1  UNL1        0.0062
     22 C          62.3959   83.1572   13.7690 C.ar    1  UNL1        0.0189
     23 C          62.4546   81.6773   14.0070 C.ar    1  UNL1        0.0784
     24 N          62.6800   80.7411   12.8568 N.ar    1  UNL1       -0.2922
     25 C          62.7387   79.2613   13.0947 C.3     1  UNL1        0.1336
     26 C          62.8465   81.2848   11.4687 C.ar    1  UNL1        0.2610
     27 O          63.0719   80.3486   10.3186 O.2     1  UNL1       -0.2670
     28 C          62.7878   82.7646   11.2308 C.ar    1  UNL1        0.0608
     29 C          59.8229   90.3041   11.5306 C.3     1  UNL1        0.0021
     30 C          61.1194   90.2281   10.7800 C.3     1  UNL1        0.0245
     31 C          66.5781   93.3953   12.1514 C.3     1  UNL1        0.0714
     32 C          66.5636   93.7314   10.6897 C.3     1  UNL1        0.0922
     33 C          65.7741   94.9727   10.9830 C.3     1  UNL1        0.0294
     34 C          67.3530   92.4902   10.3964 C.3     1  UNL1        0.0294
     35 O          66.5490   94.0677    9.2280 O.3     1  UNL1       -0.3866
     36 H          66.0645   94.8969    9.0918 H       1  UNL1        0.2102
@<TRIPOS>BOND
     1    29    30    1
     2    14    30    1
     3    14    15    1
     4    15    16   ar
     5    16    17   ar
     6    17    18   ar
     7    18    21    1
     8    21    22   ar
     9    22    23   ar
    10    23    24   ar
    11    24    25    1
    12    24    26   ar
    13    26    27    2
    14    26    28   ar
    15    18    19   ar
    16    19    20   ar
    17    14     1    1
    18     1     2    1
    19     2     3    1
    20     3     4    1
    21     4    31    1
    22    31    32    1
    23    32    33    1
    24    32    34    1
    25    32    35    1
    26     4     8    1
    27     8     9   ar
    28     9    10   ar
    29    10    11   ar
    30    11    12   ar
    31    12    13   ar
    32     4     5    1
    33     5     6    1
    34     6     7    2
    35    20    15   ar
    36     6     1   am
    37    28    21   ar
    38    13     8   ar
    39    35    36    1
@<TRIPOS>MOLECULE
*****
 36 39 0 0 0
SMALL
GASTEIGER

@<TRIPOS>ATOM
      1 N          63.6616   87.8061   13.9467 N.am    1  UNL1       -0.2438
      2 C          64.1464   86.5383   14.5851 C.3     1  UNL1        0.1009
      3 C          63.8126   85.2125   13.9680 C.3     1  UNL1        0.0662
      4 C          62.9940   85.1546   12.7124 C.3     1  UNL1        0.1600
      5 O          62.5092   86.4224   12.0739 O.3     1  UNL1       -0.4374
      6 C          62.8430   87.7482   12.6911 C.2     1  UNL1        0.4051
      7 O          62.3582   89.0160   12.0527 O.2     1  UNL1       -0.2262
      8 C          63.2220   83.6899   12.9426 C.ar    1  UNL1        0.0138
      9 C          64.5820   83.1956   13.3376 C.ar    1  UNL1       -0.0010
     10 C          64.8100   81.7310   13.5677 C.ar    1  UNL1       -0.0002
     11 C          63.6780   80.7608   13.4028 C.ar    1  UNL1       -0.0000
     12 C          62.3180   81.2551   13.0077 C.ar    1  UNL1       -0.0002
     13 C          62.0900   82.7197   12.7776 C.ar    1  UNL1       -0.0010
     14 C          63.9954   89.1319   14.5639 C.3     1  UNL1        0.1010
     15 C          64.5539   90.2351   13.7147 C.ar    1  UNL1       -0.0042
     16 C          65.8588   90.8772   14.0822 C.ar    1  UNL1       -0.0027
     17 C          66.4173   91.9803   13.2330 C.ar    1  UNL1       -0.0003
     18 C          65.6709   92.4414   12.0164 C.ar    1  UNL1        0.0002
     19 C          64.3660   91.7994   11.6489 C.ar    1  UNL1       -0.0003
     20 C          63.8075   90.6962   12.4981 C.ar    1  UNL1       -0.0027
     21 C          66.2294   93.5447   11.1672 C.ar    1  UNL1        0.0062
     22 C          66.0634   94.9741   11.5903 C.ar    1  UNL1        0.0189
     23 C          66.6219   96.0773   10.7411 C.ar    1  UNL1        0.0784
     24 N          67.3464   95.7510    9.4689 N.ar    1  UNL1       -0.2922
     25 C          67.9049   96.8541    8.6197 C.3     1  UNL1        0.1336
     26 C          67.5124   94.3215    9.0458 C.ar    1  UNL1        0.2610
     27 O          68.2370   93.9951    7.7736 O.2     1  UNL1       -0.2670
     28 C          66.9539   93.2183    9.8950 C.ar    1  UNL1        0.0608
     29 C          62.9501   88.3783   16.8199 C.3     1  UNL1        0.0021
     30 C          63.7707   89.3545   16.0301 C.3     1  UNL1        0.0245
     31 C          62.2545   84.5879   11.5367 C.3     1  UNL1        0.0714
     32 C          62.5048   85.1305   10.1609 C.3     1  UNL1        0.0922
     33 C          63.7301   84.2730   10.0455 C.3     1  UNL1        0.0294
     34 C          61.2795   85.9881   10.2763 C.3     1  UNL1        0.0294
     35 O          62.7551   85.6731    8.7851 O.3     1  UNL1       -0.3866
     36 H          63.5560   85.2672    8.4182 H       1  UNL1        0.2102
@<TRIPOS>BOND
     1    29    30    1
     2    14    30    1
     3    14    15    1
     4    15    16   ar
     5    16    17   ar
     6    17    18   ar
     7    18    21    1
     8    21    22   ar
     9    22    23   ar
    10    23    24   ar
    11    24    25    1
    12    24    26   ar
    13    26    27    2
    14    26    28   ar
    15    18    19   ar
    16    19    20   ar
    17    14     1    1
    18     1     2    1
    19     2     3    1
    20     3     4    1
    21     4    31    1
    22    31    32    1
    23    32    33    1
    24    32    34    1
    25    32    35    1
    26     4     8    1
    27     8     9   ar
    28     9    10   ar
    29    10    11   ar
    30    11    12   ar
    31    12    13   ar
    32     4     5    1
    33     5     6    1
    34     6     7    2
    35    20    15   ar
    36     6     1   am
    37    28    21   ar
    38    13     8   ar
    39    35    36    1
