@<TRIPOS>MOLECULE
*****
 46 51 0 0 0
SMALL
GASTEIGER

@<TRIPOS>ATOM
      1 C          59.1034   89.0495    7.0489 C.ar    1  UNL1        0.1348
      2 C          58.8559   87.5748    7.1672 C.ar    1  UNL1        0.0346
      3 C          59.5981   86.7695    8.1921 C.ar    1  UNL1        0.0065
      4 C          60.5880   87.4388    9.0988 C.ar    1  UNL1        0.0432
      5 C          60.8356   88.9135    8.9805 C.ar    1  UNL1        0.1256
      6 N          60.0933   89.7188    7.9556 N.ar    1  UNL1       -0.2222
      7 C          61.3302   86.6335   10.1237 C.ar    1  UNL1        0.0851
      8 C          61.2938   86.8467   11.6081 C.ar    1  UNL1        0.1035
      9 N          62.1803   85.8186   12.2460 N.ar    1  UNL1       -0.2263
     10 C          62.7647   84.9699   11.1560 C.ar    1  UNL1        0.1475
     11 C          63.7073   83.8035   11.1883 C.ar    1  UNL1        0.0332
     12 C          64.1246   83.1409    9.9089 C.ar    1  UNL1       -0.0174
     13 C          65.0672   81.9745    9.9412 C.3     1  UNL1        0.0312
     14 C          63.5992   83.6445    8.5972 C.ar    1  UNL1        0.0149
     15 C          62.6566   84.8108    8.5649 C.ar    1  UNL1        0.0811
     16 N          62.2393   85.4736    9.8444 N.ar    1  UNL1       -0.2888
     17 C          60.5086   87.9028   12.3281 C.ar    1  UNL1        0.0723
     18 C          59.0838   88.1713   11.9431 C.ar    1  UNL1        0.0078
     19 C          58.2987   89.2273   12.6631 C.ar    1  UNL1        0.0209
     20 C          58.9382   90.0148   13.7680 C.ar    1  UNL1        0.1021
     21 N          60.3629   89.7462   14.1529 N.ar    1  UNL1       -0.2101
     22 C          61.1480   88.6902   13.4329 C.ar    1  UNL1        0.2264
     23 O          62.5728   88.4218   13.8180 O.3     1  UNL1       -0.4561
     24 C          62.9937   88.5248   15.2540 C.3     1  UNL1        0.2542
     25 C          59.0850   90.8910    5.2163 C.2     1  UNL1        0.2414
     26 O          60.5512   91.1219    5.4336 O.2     1  UNL1       -0.2733
     27 N          58.3612   89.8548    6.0240 N.am    1  UNL1       -0.2682
     28 H          57.3989   89.7033    5.8814 H       1  UNL1        0.1563
     29 C          58.3427   91.6963    4.1914 C.3     1  UNL1        0.1319
     30 C          56.8886   92.0062    4.3903 C.3     1  UNL1        0.0270
     31 C          60.0234   93.3320    3.0734 C.3     1  UNL1        0.0862
     32 N          59.0546   92.1917    2.9675 N.3     1  UNL1       -0.2902
     33 H          59.5725   91.3996    2.5872 H       1  UNL1        0.1237
     34 C          61.8255   89.5829    9.8873 C.1     1  UNL1       -0.0404
     35 C          62.8153   90.2523   10.7940 C.1     1  UNL1       -0.0583
     36 C          63.8052   90.9217   11.7007 C.ar    1  UNL1        0.0420
     37 C          64.2475   90.2404   12.9616 C.ar    1  UNL1        0.0083
     38 C          65.2373   90.9098   13.8682 C.ar    1  UNL1        0.0018
     39 C          65.7848   92.2606   13.5139 C.ar    1  UNL1        0.0137
     40 C          66.7747   92.9300   14.4207 C.ar    1  UNL1        0.0594
     41 C          67.2171   92.2486   15.6816 C.3     1  UNL1        0.0521
     42 N          67.3223   94.2808   14.0664 N.ar    1  UNL1       -0.2481
     43 C          66.8799   94.9622   12.8054 C.ar    1  UNL1        0.0984
     44 C          65.8900   94.2928   11.8987 C.ar    1  UNL1        0.0207
     45 C          65.3425   92.9420   12.2530 C.ar    1  UNL1        0.0033
     46 C          64.3527   92.2726   11.3464 C.ar    1  UNL1        0.0083
@<TRIPOS>BOND
     1    31    32    1
     2    32    29    1
     3    29    30    1
     4    29    25    1
     5    25    26    2
     6    25    27   am
     7    27     1    1
     8     1     2   ar
     9     2     3   ar
    10     3     4   ar
    11     4     7    1
    12     7     8   ar
    13     8    17    1
    14    17    18   ar
    15    18    19   ar
    16    19    20   ar
    17    20    21   ar
    18    21    22   ar
    19    22    23    1
    20    23    24    1
    21     8     9   ar
    22     9    10   ar
    23    10    11   ar
    24    11    12   ar
    25    12    13    1
    26    12    14   ar
    27    14    15   ar
    28    15    16   ar
    29     4     5   ar
    30     5    34    1
    31    34    35    3
    32    35    36    1
    33    36    37   ar
    34    37    38   ar
    35    38    39   ar
    36    39    40   ar
    37    40    41    1
    38    40    42   ar
    39    42    43   ar
    40    43    44   ar
    41    44    45   ar
    42    45    46   ar
    43     5     6   ar
    44     6     1   ar
    45    16     7   ar
    46    46    36   ar
    47    22    17   ar
    48    16    10   ar
    49    45    39   ar
    50    32    33    1
    51    27    28    1
@<TRIPOS>MOLECULE
*****
 46 51 0 0 0
SMALL
GASTEIGER

@<TRIPOS>ATOM
      1 C          59.8293   90.6246    5.6529 C.ar    1  UNL1        0.1348
      2 C          59.0030   89.3824    5.8083 C.ar    1  UNL1        0.0346
      3 C          59.1294   88.5477    7.0482 C.ar    1  UNL1        0.0065
      4 C          60.0820   88.9553    8.1328 C.ar    1  UNL1        0.0432
      5 C          60.9082   90.1975    7.9775 C.ar    1  UNL1        0.1256
      6 N          60.7819   91.0322    6.7375 N.ar    1  UNL1       -0.2222
      7 C          60.2083   88.1207    9.3727 C.ar    1  UNL1        0.0851
      8 C          60.7247   86.7140    9.4399 C.ar    1  UNL1        0.1035
      9 N          60.6759   86.2701   10.8719 N.ar    1  UNL1       -0.2263
     10 C          60.1294   87.4025   11.6898 C.ar    1  UNL1        0.1475
     11 C          59.8576   87.5400   13.1585 C.ar    1  UNL1        0.0332
     12 C          59.2968   88.8212   13.7008 C.ar    1  UNL1       -0.0174
     13 C          59.0250   88.9587   15.1695 C.3     1  UNL1        0.0312
     14 C          59.0077   89.9650   12.7743 C.ar    1  UNL1        0.0149
     15 C          59.2795   89.8275   11.3055 C.ar    1  UNL1        0.0811
     16 N          59.8404   88.5462   10.7633 N.ar    1  UNL1       -0.2888
     17 C          61.2054   85.8949    8.2789 C.ar    1  UNL1        0.0723
     18 C          60.3458   85.7468    7.0584 C.ar    1  UNL1        0.0078
     19 C          60.8266   84.9277    5.8974 C.ar    1  UNL1        0.0209
     20 C          62.1668   84.2567    5.9567 C.ar    1  UNL1        0.1021
     21 N          63.0263   84.4048    7.1771 N.ar    1  UNL1       -0.2101
     22 C          62.5456   85.2239    8.3381 C.ar    1  UNL1        0.2264
     23 O          63.4052   85.3720    9.5585 O.3     1  UNL1       -0.4561
     24 C          63.5456   84.2292   10.5200 C.3     1  UNL1        0.2542
     25 C          60.9276   91.8282    3.6293 C.2     1  UNL1        0.2414
     26 O          62.2785   91.3626    4.0855 O.2     1  UNL1       -0.2733
     27 N          59.7030   91.4592    4.4130 N.am    1  UNL1       -0.2682
     28 H          58.8163   91.7648    4.1135 H       1  UNL1        0.1563
     29 C          60.8012   92.6628    2.3894 C.3     1  UNL1        0.1319
     30 C          62.0114   93.3343    1.8107 C.3     1  UNL1        0.0270
     31 C          59.3384   93.6612    0.4886 C.3     1  UNL1        0.0862
     32 N          59.4648   92.8260    1.7281 N.3     1  UNL1       -0.2902
     33 H          59.1394   91.8899    1.4868 H       1  UNL1        0.1237
     34 C          61.8609   90.6052    9.0621 C.1     1  UNL1       -0.0404
     35 C          62.8135   91.0128   10.1467 C.1     1  UNL1       -0.0583
     36 C          63.7661   91.4204   11.2313 C.ar    1  UNL1        0.0420
     37 C          65.0420   92.1276   10.8822 C.ar    1  UNL1        0.0083
     38 C          65.9945   92.5352   11.9668 C.ar    1  UNL1        0.0018
     39 C          65.6713   92.2356   13.4006 C.ar    1  UNL1        0.0137
     40 C          66.6239   92.6433   14.4852 C.ar    1  UNL1        0.0594
     41 C          67.8998   93.3505   14.1360 C.3     1  UNL1        0.0521
     42 N          66.3006   92.3436   15.9190 N.ar    1  UNL1       -0.2481
     43 C          65.0247   91.6364   16.2681 C.ar    1  UNL1        0.0984
     44 C          64.0721   91.2287   15.1835 C.ar    1  UNL1        0.0207
     45 C          64.3954   91.5284   13.7497 C.ar    1  UNL1        0.0033
     46 C          63.4428   91.1208   12.6651 C.ar    1  UNL1        0.0083
@<TRIPOS>BOND
     1    31    32    1
     2    32    29    1
     3    29    30    1
     4    29    25    1
     5    25    26    2
     6    25    27   am
     7    27     1    1
     8     1     2   ar
     9     2     3   ar
    10     3     4   ar
    11     4     7    1
    12     7     8   ar
    13     8    17    1
    14    17    18   ar
    15    18    19   ar
    16    19    20   ar
    17    20    21   ar
    18    21    22   ar
    19    22    23    1
    20    23    24    1
    21     8     9   ar
    22     9    10   ar
    23    10    11   ar
    24    11    12   ar
    25    12    13    1
    26    12    14   ar
    27    14    15   ar
    28    15    16   ar
    29     4     5   ar
    30     5    34    1
    31    34    35    3
    32    35    36    1
    33    36    37   ar
    34    37    38   ar
    35    38    39   ar
    36    39    40   ar
    37    40    41    1
    38    40    42   ar
    39    42    43   ar
    40    43    44   ar
    41    44    45   ar
    42    45    46   ar
    43     5     6   ar
    44     6     1   ar
    45    16     7   ar
    46    46    36   ar
    47    22    17   ar
    48    16    10   ar
    49    45    39   ar
    50    32    33    1
    51    27    28    1
@<TRIPOS>MOLECULE
*****
 46 51 0 0 0
SMALL
GASTEIGER

@<TRIPOS>ATOM
      1 C          60.8227   87.9262    8.7216 C.ar    1  UNL1        0.1348
      2 C          60.5122   86.5795    9.3045 C.ar    1  UNL1        0.0346
      3 C          61.1217   86.1696   10.6124 C.ar    1  UNL1        0.0065
      4 C          62.0419   87.1064   11.3373 C.ar    1  UNL1        0.0432
      5 C          62.3525   88.4532   10.7544 C.ar    1  UNL1        0.1256
      6 N          61.7429   88.8631    9.4466 N.ar    1  UNL1       -0.2222
      7 C          62.6514   86.6965   12.6451 C.ar    1  UNL1        0.0851
      8 C          63.2440   85.3549   12.9597 C.ar    1  UNL1        0.1035
      9 N          63.7342   85.3855   14.3770 N.ar    1  UNL1       -0.2263
     10 C          63.4447   86.7460   14.9384 C.ar    1  UNL1        0.1475
     11 C          63.7040   87.3518   16.2859 C.ar    1  UNL1        0.0332
     12 C          63.2941   88.7678   16.5630 C.ar    1  UNL1       -0.0174
     13 C          63.5533   89.3736   17.9105 C.3     1  UNL1        0.0312
     14 C          62.6249   89.5782   15.4927 C.ar    1  UNL1        0.0149
     15 C          62.3656   88.9724   14.1452 C.ar    1  UNL1        0.0811
     16 N          62.7755   87.5563   13.8680 N.ar    1  UNL1       -0.2888
     17 C          63.3309   84.1876   12.0217 C.ar    1  UNL1        0.0723
     18 C          63.9444   84.3607   10.6638 C.ar    1  UNL1        0.0078
     19 C          64.0314   83.1934    9.7258 C.ar    1  UNL1        0.0209
     20 C          63.5050   81.8530   10.1457 C.ar    1  UNL1        0.1021
     21 N          62.8915   81.6800   11.5035 N.ar    1  UNL1       -0.2101
     22 C          62.8045   82.8473   12.4415 C.ar    1  UNL1        0.2264
     23 O          62.1910   82.6741   13.7993 O.3     1  UNL1       -0.4561
     24 C          61.5251   81.3799   14.1618 C.3     1  UNL1        0.2542
     25 C          59.5832   89.6899    7.2715 C.2     1  UNL1        0.2414
     26 O          59.5627   90.6339    8.4372 O.2     1  UNL1       -0.2733
     27 N          60.2132   88.3361    7.4138 N.am    1  UNL1       -0.2682
     28 H          60.2266   87.7166    6.6488 H       1  UNL1        0.1563
     29 C          58.9736   90.0998    5.9637 C.3     1  UNL1        0.1319
     30 C          59.8525   90.5541    4.8363 C.3     1  UNL1        0.0270
     31 C          56.7813   91.1770    5.0787 C.3     1  UNL1        0.0862
     32 N          57.4852   90.0554    5.7833 N.3     1  UNL1       -0.2902
     33 H          57.2770   89.2036    5.2622 H       1  UNL1        0.1237
     34 C          63.2727   89.3901   11.4794 C.1     1  UNL1       -0.0404
     35 C          64.1929   90.3269   12.2043 C.1     1  UNL1       -0.0583
     36 C          65.1131   91.2639   12.9292 C.ar    1  UNL1        0.0420
     37 C          65.1611   92.7134   12.5467 C.ar    1  UNL1        0.0083
     38 C          66.0813   93.6503   13.2717 C.ar    1  UNL1        0.0018
     39 C          66.9534   93.1375   14.3791 C.ar    1  UNL1        0.0137
     40 C          67.8736   94.0744   15.1040 C.ar    1  UNL1        0.0594
     41 C          67.9216   95.5240   14.7215 C.3     1  UNL1        0.0521
     42 N          68.7458   93.5617   16.2115 N.ar    1  UNL1       -0.2481
     43 C          68.6977   92.1120   16.5940 C.ar    1  UNL1        0.0984
     44 C          67.7776   91.1752   15.8690 C.ar    1  UNL1        0.0207
     45 C          66.9054   91.6879   14.7616 C.ar    1  UNL1        0.0033
     46 C          65.9852   90.7511   14.0367 C.ar    1  UNL1        0.0083
@<TRIPOS>BOND
     1    31    32    1
     2    32    29    1
     3    29    30    1
     4    29    25    1
     5    25    26    2
     6    25    27   am
     7    27     1    1
     8     1     2   ar
     9     2     3   ar
    10     3     4   ar
    11     4     7    1
    12     7     8   ar
    13     8    17    1
    14    17    18   ar
    15    18    19   ar
    16    19    20   ar
    17    20    21   ar
    18    21    22   ar
    19    22    23    1
    20    23    24    1
    21     8     9   ar
    22     9    10   ar
    23    10    11   ar
    24    11    12   ar
    25    12    13    1
    26    12    14   ar
    27    14    15   ar
    28    15    16   ar
    29     4     5   ar
    30     5    34    1
    31    34    35    3
    32    35    36    1
    33    36    37   ar
    34    37    38   ar
    35    38    39   ar
    36    39    40   ar
    37    40    41    1
    38    40    42   ar
    39    42    43   ar
    40    43    44   ar
    41    44    45   ar
    42    45    46   ar
    43     5     6   ar
    44     6     1   ar
    45    16     7   ar
    46    46    36   ar
    47    22    17   ar
    48    16    10   ar
    49    45    39   ar
    50    32    33    1
    51    27    28    1
@<TRIPOS>MOLECULE
*****
 46 51 0 0 0
SMALL
GASTEIGER

@<TRIPOS>ATOM
      1 C          59.6413   89.9310    7.7186 C.ar    1  UNL1        0.1348
      2 C          59.3940   88.4517    7.7012 C.ar    1  UNL1        0.0346
      3 C          60.1719   87.5504    8.6136 C.ar    1  UNL1        0.0065
      4 C          61.1971   88.1284    9.5436 C.ar    1  UNL1        0.0432
      5 C          61.4444   89.6078    9.5610 C.ar    1  UNL1        0.1256
      6 N          60.6665   90.5091    8.6486 N.ar    1  UNL1       -0.2222
      7 C          61.9750   87.2272   10.4560 C.ar    1  UNL1        0.0851
      8 C          62.5347   85.8820   10.0995 C.ar    1  UNL1        0.1035
      9 N          63.2354   85.3362   11.3083 N.ar    1  UNL1       -0.2263
     10 C          63.1087   86.3442   12.4120 C.ar    1  UNL1        0.1475
     11 C          63.6020   86.3489   13.8285 C.ar    1  UNL1        0.0332
     12 C          63.3163   87.5222   14.7183 C.ar    1  UNL1       -0.0174
     13 C          63.8097   87.5269   16.1348 C.3     1  UNL1        0.0312
     14 C          62.5374   88.6909   14.1915 C.ar    1  UNL1        0.0149
     15 C          62.0440   88.6862   12.7750 C.ar    1  UNL1        0.0811
     16 N          62.3297   87.5128   11.8852 N.ar    1  UNL1       -0.2888
     17 C          62.4148   85.2018    8.7680 C.ar    1  UNL1        0.0723
     18 C          61.3828   85.6615    7.7812 C.ar    1  UNL1        0.0078
     19 C          61.2629   84.9814    6.4496 C.ar    1  UNL1        0.0209
     20 C          62.1750   83.8416    6.1048 C.ar    1  UNL1        0.1021
     21 N          63.2070   83.3820    7.0915 N.ar    1  UNL1       -0.2101
     22 C          63.3269   84.0621    8.4231 C.ar    1  UNL1        0.2264
     23 O          64.3590   83.6023    9.4098 O.3     1  UNL1       -0.4561
     24 C          64.0994   82.3925   10.2577 C.3     1  UNL1        0.2542
     25 C          59.3985   91.1641    5.4448 C.2     1  UNL1        0.2414
     26 O          60.7117   90.5947    4.9958 O.2     1  UNL1       -0.2733
     27 N          58.8634   90.8323    6.8062 N.am    1  UNL1       -0.2682
     28 H          58.0016   91.2060    7.1009 H       1  UNL1        0.1563
     29 C          58.6206   92.0654    4.5323 C.3     1  UNL1        0.1319
     30 C          59.2781   92.6521    3.3184 C.3     1  UNL1        0.0270
     31 C          56.1782   91.2722    4.9263 C.3     1  UNL1        0.0862
     32 N          57.1853   92.3800    4.8338 N.3     1  UNL1       -0.2902
     33 H          57.1724   92.8654    5.7308 H       1  UNL1        0.1237
     34 C          62.4696   90.1859   10.4909 C.1     1  UNL1       -0.0404
     35 C          63.4948   90.7640   11.4209 C.1     1  UNL1       -0.0583
     36 C          64.5200   91.3422   12.3508 C.ar    1  UNL1        0.0420
     37 C          65.8179   91.8613   11.8069 C.ar    1  UNL1        0.0083
     38 C          66.8431   92.4394   12.7368 C.ar    1  UNL1        0.0018
     39 C          66.5703   92.4984   14.2107 C.ar    1  UNL1        0.0137
     40 C          67.5956   93.0765   15.1406 C.ar    1  UNL1        0.0594
     41 C          68.8935   93.5957   14.5967 C.3     1  UNL1        0.0521
     42 N          67.3228   93.1355   16.6144 N.ar    1  UNL1       -0.2481
     43 C          66.0248   92.6163   17.1583 C.ar    1  UNL1        0.0984
     44 C          64.9996   92.0382   16.2284 C.ar    1  UNL1        0.0207
     45 C          65.2724   91.9792   14.7545 C.ar    1  UNL1        0.0033
     46 C          64.2472   91.4011   13.8246 C.ar    1  UNL1        0.0083
@<TRIPOS>BOND
     1    31    32    1
     2    32    29    1
     3    29    30    1
     4    29    25    1
     5    25    26    2
     6    25    27   am
     7    27     1    1
     8     1     2   ar
     9     2     3   ar
    10     3     4   ar
    11     4     7    1
    12     7     8   ar
    13     8    17    1
    14    17    18   ar
    15    18    19   ar
    16    19    20   ar
    17    20    21   ar
    18    21    22   ar
    19    22    23    1
    20    23    24    1
    21     8     9   ar
    22     9    10   ar
    23    10    11   ar
    24    11    12   ar
    25    12    13    1
    26    12    14   ar
    27    14    15   ar
    28    15    16   ar
    29     4     5   ar
    30     5    34    1
    31    34    35    3
    32    35    36    1
    33    36    37   ar
    34    37    38   ar
    35    38    39   ar
    36    39    40   ar
    37    40    41    1
    38    40    42   ar
    39    42    43   ar
    40    43    44   ar
    41    44    45   ar
    42    45    46   ar
    43     5     6   ar
    44     6     1   ar
    45    16     7   ar
    46    46    36   ar
    47    22    17   ar
    48    16    10   ar
    49    45    39   ar
    50    32    33    1
    51    27    28    1
@<TRIPOS>MOLECULE
*****
 46 51 0 0 0
SMALL
GASTEIGER

@<TRIPOS>ATOM
      1 C          60.9985   90.2165    9.2327 C.ar    1  UNL1        0.1348
      2 C          61.5723   91.1467   10.2601 C.ar    1  UNL1        0.0346
      3 C          62.3285   90.5950   11.4322 C.ar    1  UNL1        0.0065
      4 C          62.5109   89.1132   11.5769 C.ar    1  UNL1        0.0432
      5 C          61.9372   88.1831   10.5495 C.ar    1  UNL1        0.1256
      6 N          61.1810   88.7348    9.3774 N.ar    1  UNL1       -0.2222
      7 C          63.2671   88.5616   12.7490 C.ar    1  UNL1        0.0851
      8 C          64.3736   89.2531   13.4890 C.ar    1  UNL1        0.1035
      9 N          64.8399   88.3404   14.5843 N.ar    1  UNL1       -0.2263
     10 C          64.0216   87.0849   14.5213 C.ar    1  UNL1        0.1475
     11 C          64.0360   85.8348   15.3501 C.ar    1  UNL1        0.0332
     12 C          63.0784   84.7214   15.0448 C.ar    1  UNL1       -0.0174
     13 C          63.0928   83.4713   15.8736 C.3     1  UNL1        0.0312
     14 C          62.1063   84.8580   13.9105 C.ar    1  UNL1        0.0149
     15 C          62.0919   86.1081   13.0817 C.ar    1  UNL1        0.0811
     16 N          63.0496   87.2216   13.3870 N.ar    1  UNL1       -0.2888
     17 C          64.9182   90.6177   13.1867 C.ar    1  UNL1        0.0723
     18 C          65.0988   91.0547   11.7631 C.ar    1  UNL1        0.0078
     19 C          65.6434   92.4193   11.4609 C.ar    1  UNL1        0.0209
     20 C          66.0073   93.3468   12.5821 C.ar    1  UNL1        0.1021
     21 N          65.8267   92.9098   14.0056 N.ar    1  UNL1       -0.2101
     22 C          65.2821   91.5452   14.3079 C.ar    1  UNL1        0.2264
     23 O          65.1015   91.1083   15.7315 O.3     1  UNL1       -0.4561
     24 C          63.8137   91.3934   16.4458 C.3     1  UNL1        0.2542
     25 C          59.5526   89.8375    7.1077 C.2     1  UNL1        0.2414
     26 O          59.6191   88.3550    7.3269 O.2     1  UNL1       -0.2733
     27 N          60.2424   90.7682    8.0606 N.am    1  UNL1       -0.2682
     28 H          60.1988   91.7411    7.9167 H       1  UNL1        0.1563
     29 C          58.7964   90.3891    5.9356 C.3     1  UNL1        0.1319
     30 C          59.5311   91.0919    4.8326 C.3     1  UNL1        0.0270
     31 C          56.4892   91.2125    5.0703 C.3     1  UNL1        0.0862
     32 N          57.3057   90.2380    5.8664 N.3     1  UNL1       -0.2902
     33 H          57.1212   89.3130    5.4781 H       1  UNL1        0.1237
     34 C          62.1196   86.7012   10.6942 C.1     1  UNL1       -0.0404
     35 C          62.3019   85.2194   10.8389 C.1     1  UNL1       -0.0583
     36 C          62.4844   83.7376   10.9835 C.ar    1  UNL1        0.0420
     37 C          63.0066   82.9303    9.8323 C.ar    1  UNL1        0.0083
     38 C          63.1890   81.4485    9.9770 C.ar    1  UNL1        0.0018
     39 C          62.8491   80.7740   11.2730 C.ar    1  UNL1        0.0137
     40 C          63.0316   79.2921   11.4176 C.ar    1  UNL1        0.0594
     41 C          63.5538   78.4848   10.2664 C.3     1  UNL1        0.0521
     42 N          62.6917   78.6176   12.7136 N.ar    1  UNL1       -0.2481
     43 C          62.1694   79.4250   13.8649 C.ar    1  UNL1        0.0984
     44 C          61.9871   80.9068   13.7202 C.ar    1  UNL1        0.0207
     45 C          62.3269   81.5813   12.4242 C.ar    1  UNL1        0.0033
     46 C          62.1445   83.0631   12.2795 C.ar    1  UNL1        0.0083
@<TRIPOS>BOND
     1    31    32    1
     2    32    29    1
     3    29    30    1
     4    29    25    1
     5    25    26    2
     6    25    27   am
     7    27     1    1
     8     1     2   ar
     9     2     3   ar
    10     3     4   ar
    11     4     7    1
    12     7     8   ar
    13     8    17    1
    14    17    18   ar
    15    18    19   ar
    16    19    20   ar
    17    20    21   ar
    18    21    22   ar
    19    22    23    1
    20    23    24    1
    21     8     9   ar
    22     9    10   ar
    23    10    11   ar
    24    11    12   ar
    25    12    13    1
    26    12    14   ar
    27    14    15   ar
    28    15    16   ar
    29     4     5   ar
    30     5    34    1
    31    34    35    3
    32    35    36    1
    33    36    37   ar
    34    37    38   ar
    35    38    39   ar
    36    39    40   ar
    37    40    41    1
    38    40    42   ar
    39    42    43   ar
    40    43    44   ar
    41    44    45   ar
    42    45    46   ar
    43     5     6   ar
    44     6     1   ar
    45    16     7   ar
    46    46    36   ar
    47    22    17   ar
    48    16    10   ar
    49    45    39   ar
    50    32    33    1
    51    27    28    1
@<TRIPOS>MOLECULE
*****
 46 51 0 0 0
SMALL
GASTEIGER

@<TRIPOS>ATOM
      1 C          62.7169   83.8864   12.9737 C.ar    1  UNL1        0.1348
      2 C          61.5700   83.6532   12.0356 C.ar    1  UNL1        0.0346
      3 C          61.0257   84.7881   11.2197 C.ar    1  UNL1        0.0065
      4 C          61.6282   86.1563   11.3420 C.ar    1  UNL1        0.0432
      5 C          62.7751   86.3895   12.2801 C.ar    1  UNL1        0.1256
      6 N          63.3195   85.2546   13.0960 N.ar    1  UNL1       -0.2222
      7 C          61.0839   87.2912   10.5261 C.ar    1  UNL1        0.0851
      8 C          61.0555   87.3661    9.0283 C.ar    1  UNL1        0.1035
      9 N          60.4265   88.6717    8.6412 N.ar    1  UNL1       -0.2263
     10 C          60.0661   89.4037    9.8999 C.ar    1  UNL1        0.1475
     11 C          59.4204   90.7369   10.1358 C.ar    1  UNL1        0.0332
     12 C          59.1811   91.2169   11.5367 C.ar    1  UNL1       -0.0174
     13 C          58.5354   92.5501   11.7726 C.3     1  UNL1        0.0312
     14 C          59.5874   90.3637   12.7016 C.ar    1  UNL1        0.0149
     15 C          60.2330   89.0305   12.4657 C.ar    1  UNL1        0.0811
     16 N          60.4724   88.5505   11.0648 N.ar    1  UNL1       -0.2888
     17 C          61.5665   86.3192    8.0833 C.ar    1  UNL1        0.0723
     18 C          62.9429   85.7515    8.2659 C.ar    1  UNL1        0.0078
     19 C          63.4539   84.7046    7.3209 C.ar    1  UNL1        0.0209
     20 C          62.5885   84.2255    6.1933 C.ar    1  UNL1        0.1021
     21 N          61.2122   84.7932    6.0107 N.ar    1  UNL1       -0.2101
     22 C          60.7012   85.8401    6.9557 C.ar    1  UNL1        0.2264
     23 O          59.3248   86.4077    6.7730 O.3     1  UNL1       -0.4561
     24 C          58.3341   86.3493    7.8978 C.3     1  UNL1        0.2542
     25 C          63.3385   81.3740   13.2009 C.2     1  UNL1        0.2414
     26 O          62.8714   81.1315   11.7962 O.2     1  UNL1       -0.2733
     27 N          63.2612   82.7515   13.7896 N.am    1  UNL1       -0.2682
     28 H          63.5678   82.9107   14.7115 H       1  UNL1        0.1563
     29 C          63.8828   80.2391   14.0168 C.3     1  UNL1        0.1319
     30 C          65.2778   80.3101   14.5636 C.3     1  UNL1        0.0270
     31 C          61.5650   79.0660   13.9754 C.3     1  UNL1        0.0862
     32 N          63.0322   79.0333   14.2858 N.3     1  UNL1       -0.2902
     33 H          63.4305   78.2655   13.7452 H       1  UNL1        0.1237
     34 C          63.3778   87.7577   12.4024 C.1     1  UNL1       -0.0404
     35 C          63.9804   89.1258   12.5247 C.1     1  UNL1       -0.0583
     36 C          64.5830   90.4941   12.6470 C.ar    1  UNL1        0.0420
     37 C          64.3740   91.5056   11.5594 C.ar    1  UNL1        0.0083
     38 C          64.9766   92.8737   11.6817 C.ar    1  UNL1        0.0018
     39 C          65.7883   93.2303   12.8917 C.ar    1  UNL1        0.0137
     40 C          66.3909   94.5985   13.0140 C.ar    1  UNL1        0.0594
     41 C          66.1819   95.6101   11.9264 C.3     1  UNL1        0.0521
     42 N          67.2026   94.9551   14.2240 N.ar    1  UNL1       -0.2481
     43 C          67.4116   93.9435   15.3117 C.ar    1  UNL1        0.0984
     44 C          66.8090   92.5753   15.1893 C.ar    1  UNL1        0.0207
     45 C          65.9973   92.2188   13.9794 C.ar    1  UNL1        0.0033
     46 C          65.3947   90.8506   13.8570 C.ar    1  UNL1        0.0083
@<TRIPOS>BOND
     1    31    32    1
     2    32    29    1
     3    29    30    1
     4    29    25    1
     5    25    26    2
     6    25    27   am
     7    27     1    1
     8     1     2   ar
     9     2     3   ar
    10     3     4   ar
    11     4     7    1
    12     7     8   ar
    13     8    17    1
    14    17    18   ar
    15    18    19   ar
    16    19    20   ar
    17    20    21   ar
    18    21    22   ar
    19    22    23    1
    20    23    24    1
    21     8     9   ar
    22     9    10   ar
    23    10    11   ar
    24    11    12   ar
    25    12    13    1
    26    12    14   ar
    27    14    15   ar
    28    15    16   ar
    29     4     5   ar
    30     5    34    1
    31    34    35    3
    32    35    36    1
    33    36    37   ar
    34    37    38   ar
    35    38    39   ar
    36    39    40   ar
    37    40    41    1
    38    40    42   ar
    39    42    43   ar
    40    43    44   ar
    41    44    45   ar
    42    45    46   ar
    43     5     6   ar
    44     6     1   ar
    45    16     7   ar
    46    46    36   ar
    47    22    17   ar
    48    16    10   ar
    49    45    39   ar
    50    32    33    1
    51    27    28    1
