@<TRIPOS>MOLECULE
*****
 21 23 0 0 0
SMALL
GASTEIGER

@<TRIPOS>ATOM
      1 C          65.0209   91.9261   12.0067 C.ar    1  UNL1        0.0538
      2 C          63.8127   91.3257   11.3511 C.ar    1  UNL1        0.1019
      3 N          62.9518   90.3582   12.1077 N.ar    1  UNL1       -0.2422
      4 C          63.2990   89.9910   13.5200 C.ar    1  UNL1        0.0989
      5 C          64.5072   90.5913   14.1757 C.ar    1  UNL1        0.0209
      6 C          65.3681   91.5588   13.4190 C.ar    1  UNL1        0.0090
      7 C          66.5764   92.1592   14.0746 C.ar    1  UNL1        0.0386
      8 C          66.4112   93.1289   15.2071 C.ar    1  UNL1        0.1022
      9 N          67.6193   93.7293   15.8627 N.ar    1  UNL1       -0.2224
     10 C          68.9928   93.3599   15.3859 C.ar    1  UNL1        0.1989
     11 N          69.1580   92.3902   14.2535 N.ar    1  UNL1       -0.2224
     12 C          67.9497   91.7898   13.5978 C.ar    1  UNL1        0.1022
     13 C          66.8314   94.9555   10.3911 C.ar    1  UNL1        0.1385
     14 C          67.5824   93.8096    9.7803 C.ar    1  UNL1        0.0375
     15 C          66.9955   92.5353   10.3111 C.ar    1  UNL1        0.0404
     16 C          65.8819   92.8937   11.2501 C.ar    1  UNL1        0.1464
     17 O          65.7805   94.3894   11.2995 O.2     1  UNL1       -0.4563
     18 N          67.6599   96.8556    8.8248 N.3     1  UNL1       -0.3148
     19 C          67.0866   96.4118   10.1380 C.3     1  UNL1        0.1307
     20 H          67.7666   97.8700    8.8259 H       1  UNL1        0.1192
     21 H          67.0322   96.5805    8.0694 H       1  UNL1        0.1192
@<TRIPOS>BOND
     1    18    19    1
     2    19    13    1
     3    13    14   ar
     4    14    15   ar
     5    15    16   ar
     6    16     1    1
     7     1     2   ar
     8     2     3   ar
     9     3     4   ar
    10     4     5   ar
    11     5     6   ar
    12     6     7    1
    13     7     8   ar
    14     8     9   ar
    15     9    10   ar
    16    10    11   ar
    17    11    12   ar
    18    16    17   ar
    19    17    13   ar
    20     6     1   ar
    21    12     7   ar
    22    18    20    1
    23    18    21    1
@<TRIPOS>MOLECULE
*****
 21 23 0 0 0
SMALL
GASTEIGER

@<TRIPOS>ATOM
      1 C          65.0012   91.9607   11.9523 C.ar    1  UNL1        0.0538
      2 C          63.7921   91.3790   11.2817 C.ar    1  UNL1        0.1019
      3 N          62.9148   90.4142   12.0229 N.ar    1  UNL1       -0.2422
      4 C          63.2465   90.0311   13.4347 C.ar    1  UNL1        0.0989
      5 C          64.4556   90.6127   14.1053 C.ar    1  UNL1        0.0209
      6 C          65.3329   91.5775   13.3641 C.ar    1  UNL1        0.0090
      7 C          66.5421   92.1593   14.0347 C.ar    1  UNL1        0.0386
      8 C          67.9153   91.7782   13.5667 C.ar    1  UNL1        0.1022
      9 N          69.1245   92.3599   14.2372 N.ar    1  UNL1       -0.2224
     10 C          68.9604   93.3227   15.3758 C.ar    1  UNL1        0.1989
     11 N          67.5871   93.7037   15.8438 N.ar    1  UNL1       -0.2224
     12 C          66.3780   93.1220   15.1732 C.ar    1  UNL1        0.1022
     13 C          66.8265   94.9830   10.3401 C.ar    1  UNL1        0.1385
     14 C          67.6309   93.8374    9.8010 C.ar    1  UNL1        0.0375
     15 C          67.0450   92.5658   10.3394 C.ar    1  UNL1        0.0404
     16 C          65.8785   92.9255   11.2111 C.ar    1  UNL1        0.1464
     17 O          65.7435   94.4194   11.2116 O.2     1  UNL1       -0.4563
     18 N          67.6962   96.8560    8.7635 N.3     1  UNL1       -0.3148
     19 C          67.0635   96.4370   10.0573 C.3     1  UNL1        0.1307
     20 H          67.7809   97.8722    8.7398 H       1  UNL1        0.1192
     21 H          67.1157   96.5449    7.9846 H       1  UNL1        0.1192
@<TRIPOS>BOND
     1    18    19    1
     2    19    13    1
     3    13    14   ar
     4    14    15   ar
     5    15    16   ar
     6    16     1    1
     7     1     2   ar
     8     2     3   ar
     9     3     4   ar
    10     4     5   ar
    11     5     6   ar
    12     6     7    1
    13     7     8   ar
    14     8     9   ar
    15     9    10   ar
    16    10    11   ar
    17    11    12   ar
    18    16    17   ar
    19    17    13   ar
    20     6     1   ar
    21    12     7   ar
    22    18    20    1
    23    18    21    1
@<TRIPOS>MOLECULE
*****
 21 23 0 0 0
SMALL
GASTEIGER

@<TRIPOS>ATOM
      1 C          63.8927   90.6022   12.7568 C.ar    1  UNL1        0.0538
      2 C          64.3988   91.7327   11.9108 C.ar    1  UNL1        0.1019
      3 N          65.6083   92.5084   12.3412 N.ar    1  UNL1       -0.2422
      4 C          66.3117   92.1536   13.6176 C.ar    1  UNL1        0.0989
      5 C          65.8056   91.0232   14.4637 C.ar    1  UNL1        0.0209
      6 C          64.5961   90.2475   14.0333 C.ar    1  UNL1        0.0090
      7 C          64.0899   89.1169   14.8794 C.ar    1  UNL1        0.0386
      8 C          63.2461   89.4027   16.0861 C.ar    1  UNL1        0.1022
      9 N          62.7399   88.2723   16.9321 N.ar    1  UNL1       -0.2224
     10 C          63.0776   86.8559   16.5715 C.ar    1  UNL1        0.1989
     11 N          63.9215   86.5701   15.3648 N.ar    1  UNL1       -0.2224
     12 C          64.4276   87.7007   14.5187 C.ar    1  UNL1        0.1022
     13 C          60.3908   89.0611   12.1035 C.ar    1  UNL1        0.1385
     14 C          61.2531   88.2041   11.2247 C.ar    1  UNL1        0.0375
     15 C          62.6698   88.6772   11.3625 C.ar    1  UNL1        0.0404
     16 C          62.6831   89.8264   12.3264 C.ar    1  UNL1        0.1464
     17 O          61.2746   90.0637   12.7843 O.2     1  UNL1       -0.4563
     18 N          58.3309   88.5531   13.6031 N.3     1  UNL1       -0.3148
     19 C          58.9054   88.9371   12.2718 C.3     1  UNL1        0.1307
     20 H          57.3137   88.5164   13.5366 H       1  UNL1        0.1192
     21 H          58.6012   89.2447   14.3023 H       1  UNL1        0.1192
@<TRIPOS>BOND
     1    18    19    1
     2    19    13    1
     3    13    14   ar
     4    14    15   ar
     5    15    16   ar
     6    16     1    1
     7     1     2   ar
     8     2     3   ar
     9     3     4   ar
    10     4     5   ar
    11     5     6   ar
    12     6     7    1
    13     7     8   ar
    14     8     9   ar
    15     9    10   ar
    16    10    11   ar
    17    11    12   ar
    18    16    17   ar
    19    17    13   ar
    20     6     1   ar
    21    12     7   ar
    22    18    20    1
    23    18    21    1
@<TRIPOS>MOLECULE
*****
 21 23 0 0 0
SMALL
GASTEIGER

@<TRIPOS>ATOM
      1 C          64.4694   90.4518   13.7467 C.ar    1  UNL1        0.0538
      2 C          65.6131   91.3700   14.0611 C.ar    1  UNL1        0.1019
      3 N          66.0636   92.3807   13.0485 N.ar    1  UNL1       -0.2422
      4 C          65.3705   92.4733   11.7215 C.ar    1  UNL1        0.0989
      5 C          64.2267   91.5551   11.4071 C.ar    1  UNL1        0.0209
      6 C          63.7762   90.5444   12.4197 C.ar    1  UNL1        0.0090
      7 C          62.6324   89.6262   12.1053 C.ar    1  UNL1        0.0386
      8 C          61.2201   90.1079   12.2581 C.ar    1  UNL1        0.1022
      9 N          60.0764   89.1898   11.9438 N.ar    1  UNL1       -0.2224
     10 C          60.3449   87.7899   11.4766 C.ar    1  UNL1        0.1989
     11 N          61.7572   87.3082   11.3237 N.ar    1  UNL1       -0.2224
     12 C          62.9010   88.2264   11.6381 C.ar    1  UNL1        0.1022
     13 C          63.5910   87.3337   15.8848 C.ar    1  UNL1        0.1385
     14 C          63.0597   88.4377   16.7503 C.ar    1  UNL1        0.0375
     15 C          63.3241   89.7400   16.0547 C.ar    1  UNL1        0.0404
     16 C          64.0188   89.4410   14.7593 C.ar    1  UNL1        0.1464
     17 O          64.1837   87.9538   14.6543 O.2     1  UNL1       -0.4563
     18 N          62.2432   85.2336   16.6080 N.3     1  UNL1       -0.3148
     19 C          63.5387   85.8671   16.1953 C.3     1  UNL1        0.1307
     20 H          62.3904   84.2388   16.7787 H       1  UNL1        0.1192
     21 H          61.5545   85.3529   15.8651 H       1  UNL1        0.1192
@<TRIPOS>BOND
     1    18    19    1
     2    19    13    1
     3    13    14   ar
     4    14    15   ar
     5    15    16   ar
     6    16     1    1
     7     1     2   ar
     8     2     3   ar
     9     3     4   ar
    10     4     5   ar
    11     5     6   ar
    12     6     7    1
    13     7     8   ar
    14     8     9   ar
    15     9    10   ar
    16    10    11   ar
    17    11    12   ar
    18    16    17   ar
    19    17    13   ar
    20     6     1   ar
    21    12     7   ar
    22    18    20    1
    23    18    21    1
@<TRIPOS>MOLECULE
*****
 21 23 0 0 0
SMALL
GASTEIGER

@<TRIPOS>ATOM
      1 C          63.8654   90.5115   12.6083 C.ar    1  UNL1        0.0538
      2 C          64.3214   91.6487   11.7430 C.ar    1  UNL1        0.1019
      3 N          65.4240   92.5516   12.2107 N.ar    1  UNL1       -0.2422
      4 C          66.0708   92.3173   13.5437 C.ar    1  UNL1        0.0989
      5 C          65.6148   91.1801   14.4090 C.ar    1  UNL1        0.0209
      6 C          64.5122   90.2771   13.9413 C.ar    1  UNL1        0.0090
      7 C          64.0561   89.1398   14.8066 C.ar    1  UNL1        0.0386
      8 C          63.2181   89.4105   16.0208 C.ar    1  UNL1        0.1022
      9 N          62.7621   88.2733   16.8861 N.ar    1  UNL1       -0.2224
     10 C          63.1441   86.8653   16.5372 C.ar    1  UNL1        0.1989
     11 N          63.9822   86.5946   15.3230 N.ar    1  UNL1       -0.2224
     12 C          64.4382   87.7319   14.4577 C.ar    1  UNL1        0.1022
     13 C          61.5637   87.6697   11.3075 C.ar    1  UNL1        0.1385
     14 C          60.5678   88.7683   11.5345 C.ar    1  UNL1        0.0375
     15 C          61.3089   89.9665   12.0494 C.ar    1  UNL1        0.0404
     16 C          62.7627   89.6085   12.1406 C.ar    1  UNL1        0.1464
     17 O          62.9201   88.1890   11.6821 O.2     1  UNL1       -0.4563
     18 N          62.1613   85.1470   11.1383 N.3     1  UNL1       -0.3148
     19 C          61.2569   86.2935   10.7957 C.3     1  UNL1        0.1307
     20 H          61.8044   84.2927   10.7103 H       1  UNL1        0.1192
     21 H          62.1950   85.0314   12.1512 H       1  UNL1        0.1192
@<TRIPOS>BOND
     1    18    19    1
     2    19    13    1
     3    13    14   ar
     4    14    15   ar
     5    15    16   ar
     6    16     1    1
     7     1     2   ar
     8     2     3   ar
     9     3     4   ar
    10     4     5   ar
    11     5     6   ar
    12     6     7    1
    13     7     8   ar
    14     8     9   ar
    15     9    10   ar
    16    10    11   ar
    17    11    12   ar
    18    16    17   ar
    19    17    13   ar
    20     6     1   ar
    21    12     7   ar
    22    18    20    1
    23    18    21    1
@<TRIPOS>MOLECULE
*****
 21 23 0 0 0
SMALL
GASTEIGER

@<TRIPOS>ATOM
      1 C          63.2343   84.5374   11.7040 C.ar    1  UNL1        0.0538
      2 C          63.5257   83.7446   10.4645 C.ar    1  UNL1        0.1019
      3 N          64.1978   82.4078   10.5700 N.ar    1  UNL1       -0.2422
      4 C          64.5785   81.8638   11.9150 C.ar    1  UNL1        0.0989
      5 C          64.2871   82.6566   13.1545 C.ar    1  UNL1        0.0209
      6 C          63.6150   83.9934   13.0491 C.ar    1  UNL1        0.0090
      7 C          63.3236   84.7863   14.2887 C.ar    1  UNL1        0.0386
      8 C          62.1524   84.4236   15.1528 C.ar    1  UNL1        0.1022
      9 N          61.8609   85.2164   16.3924 N.ar    1  UNL1       -0.2224
     10 C          62.7407   86.3719   16.7678 C.ar    1  UNL1        0.1989
     11 N          63.9119   86.7346   15.9036 N.ar    1  UNL1       -0.2224
     12 C          64.2033   85.9417   14.6640 C.ar    1  UNL1        0.1022
     13 C          62.1034   88.2493   11.7974 C.ar    1  UNL1        0.1385
     14 C          60.9524   87.6137   11.0753 C.ar    1  UNL1        0.0375
     15 C          61.2360   86.1459   10.9525 C.ar    1  UNL1        0.0404
     16 C          62.5622   85.8743   11.5986 C.ar    1  UNL1        0.1464
     17 O          63.0983   87.1743   12.1208 O.2     1  UNL1       -0.4563
     18 N          62.3589   90.1326   13.5688 N.3     1  UNL1       -0.3148
     19 C          62.2362   89.7044   12.1365 C.3     1  UNL1        0.1307
     20 H          62.4396   91.1484   13.6143 H       1  UNL1        0.1192
     21 H          63.1891   89.7068   13.9810 H       1  UNL1        0.1192
@<TRIPOS>BOND
     1    18    19    1
     2    19    13    1
     3    13    14   ar
     4    14    15   ar
     5    15    16   ar
     6    16     1    1
     7     1     2   ar
     8     2     3   ar
     9     3     4   ar
    10     4     5   ar
    11     5     6   ar
    12     6     7    1
    13     7     8   ar
    14     8     9   ar
    15     9    10   ar
    16    10    11   ar
    17    11    12   ar
    18    16    17   ar
    19    17    13   ar
    20     6     1   ar
    21    12     7   ar
    22    18    20    1
    23    18    21    1
@<TRIPOS>MOLECULE
*****
 21 23 0 0 0
SMALL
GASTEIGER

@<TRIPOS>ATOM
      1 C          60.8552   88.4298    9.3803 C.ar    1  UNL1        0.0538
      2 C          59.9964   89.2664    8.4791 C.ar    1  UNL1        0.1019
      3 N          59.1012   88.6072    7.4721 N.ar    1  UNL1       -0.2422
      4 C          59.0649   87.1114    7.3663 C.ar    1  UNL1        0.0989
      5 C          59.9238   86.2747    8.2676 C.ar    1  UNL1        0.0209
      6 C          60.8190   86.9339    9.2746 C.ar    1  UNL1        0.0090
      7 C          61.6779   86.0973   10.1759 C.ar    1  UNL1        0.0386
      8 C          61.4570   86.1239   11.6593 C.ar    1  UNL1        0.1022
      9 N          62.3159   85.2874   12.5607 N.ar    1  UNL1       -0.2224
     10 C          63.3957   84.4241   11.9786 C.ar    1  UNL1        0.1989
     11 N          63.6167   84.3975   10.4952 N.ar    1  UNL1       -0.2224
     12 C          62.7577   85.2341    9.5939 C.ar    1  UNL1        0.1022
     13 C          62.7468   89.7730   12.4921 C.ar    1  UNL1        0.1385
     14 C          63.5093   90.4336   11.3820 C.ar    1  UNL1        0.0375
     15 C          62.8935   90.0108   10.0812 C.ar    1  UNL1        0.0404
     16 C          61.7505   89.0890   10.3874 C.ar    1  UNL1        0.1464
     17 O          61.6599   88.9420   11.8774 O.2     1  UNL1       -0.4563
     18 N          63.4482   91.2449   14.5150 N.3     1  UNL1       -0.3148
     19 C          63.0230   89.9181   13.9594 C.3     1  UNL1        0.1307
     20 H          63.5916   91.1619   15.5214 H       1  UNL1        0.1192
     21 H          62.7235   91.9386   14.3309 H       1  UNL1        0.1192
@<TRIPOS>BOND
     1    18    19    1
     2    19    13    1
     3    13    14   ar
     4    14    15   ar
     5    15    16   ar
     6    16     1    1
     7     1     2   ar
     8     2     3   ar
     9     3     4   ar
    10     4     5   ar
    11     5     6   ar
    12     6     7    1
    13     7     8   ar
    14     8     9   ar
    15     9    10   ar
    16    10    11   ar
    17    11    12   ar
    18    16    17   ar
    19    17    13   ar
    20     6     1   ar
    21    12     7   ar
    22    18    20    1
    23    18    21    1
@<TRIPOS>MOLECULE
*****
 21 23 0 0 0
SMALL
GASTEIGER

@<TRIPOS>ATOM
      1 C          60.7684   86.7954    9.1459 C.ar    1  UNL1        0.0538
      2 C          60.0358   86.1163    8.0270 C.ar    1  UNL1        0.1019
      3 N          59.1916   86.9225    7.0851 N.ar    1  UNL1       -0.2422
      4 C          59.0800   88.4079    7.2621 C.ar    1  UNL1        0.0989
      5 C          59.8126   89.0870    8.3810 C.ar    1  UNL1        0.0209
      6 C          60.6569   88.2807    9.3230 C.ar    1  UNL1        0.0090
      7 C          61.3895   88.9598   10.4420 C.ar    1  UNL1        0.0386
      8 C          60.7680   89.0416   11.8047 C.ar    1  UNL1        0.1022
      9 N          61.5006   89.7206   12.9236 N.ar    1  UNL1       -0.2224
     10 C          62.8548   90.3179   12.6799 C.ar    1  UNL1        0.1989
     11 N          63.4764   90.2362   11.3172 N.ar    1  UNL1       -0.2224
     12 C          62.7437   89.5571   10.1982 C.ar    1  UNL1        0.1022
     13 C          62.4977   84.9891   12.1146 C.ar    1  UNL1        0.1385
     14 C          63.3260   84.5079   10.9603 C.ar    1  UNL1        0.0375
     15 C          62.7790   85.1259    9.7078 C.ar    1  UNL1        0.0404
     16 C          61.6127   85.9891   10.0879 C.ar    1  UNL1        0.1464
     17 O          61.4388   85.9046   11.5754 O.2     1  UNL1       -0.4563
     18 N          63.4402   85.5435   14.4713 N.3     1  UNL1       -0.3148
     19 C          62.6939   84.6197   13.5551 C.3     1  UNL1        0.1307
     20 H          63.4783   85.1375   15.4063 H       1  UNL1        0.1192
     21 H          62.9615   86.4433   14.5107 H       1  UNL1        0.1192
@<TRIPOS>BOND
     1    18    19    1
     2    19    13    1
     3    13    14   ar
     4    14    15   ar
     5    15    16   ar
     6    16     1    1
     7     1     2   ar
     8     2     3   ar
     9     3     4   ar
    10     4     5   ar
    11     5     6   ar
    12     6     7    1
    13     7     8   ar
    14     8     9   ar
    15     9    10   ar
    16    10    11   ar
    17    11    12   ar
    18    16    17   ar
    19    17    13   ar
    20     6     1   ar
    21    12     7   ar
    22    18    20    1
    23    18    21    1
@<TRIPOS>MOLECULE
*****
 21 23 0 0 0
SMALL
GASTEIGER

@<TRIPOS>ATOM
      1 C          63.4730   84.0257   13.4845 C.ar    1  UNL1        0.0538
      2 C          63.7808   83.0459   14.5778 C.ar    1  UNL1        0.1019
      3 N          63.5301   81.5823   14.3657 N.ar    1  UNL1       -0.2422
      4 C          62.9716   81.0985   13.0603 C.ar    1  UNL1        0.0989
      5 C          62.6637   82.0783   11.9671 C.ar    1  UNL1        0.0209
      6 C          62.9144   83.5419   12.1792 C.ar    1  UNL1        0.0090
      7 C          62.6066   84.5217   11.0859 C.ar    1  UNL1        0.0386
      8 C          61.4926   85.5115   11.2576 C.ar    1  UNL1        0.1022
      9 N          61.1848   86.4913   10.1644 N.ar    1  UNL1       -0.2224
     10 C          61.9909   86.4814    8.8994 C.ar    1  UNL1        0.1989
     11 N          63.1049   85.4917    8.7277 N.ar    1  UNL1       -0.2224
     12 C          63.4127   84.5118    9.8210 C.ar    1  UNL1        0.1022
     13 C          63.7383   87.8969   13.3901 C.ar    1  UNL1        0.1385
     14 C          64.4809   87.5863   14.6559 C.ar    1  UNL1        0.0375
     15 C          64.4719   86.0983   14.8453 C.ar    1  UNL1        0.0404
     16 C          63.7237   85.4893   13.6966 C.ar    1  UNL1        0.1464
     17 O          63.2703   86.6009   12.7973 O.2     1  UNL1       -0.4563
     18 N          62.3824   90.1126   13.3373 N.3     1  UNL1       -0.3148
     19 C          63.5046   89.2636   12.8177 C.3     1  UNL1        0.1307
     20 H          62.3705   91.0025   12.8390 H       1  UNL1        0.1192
     21 H          62.5181   90.2827   14.3339 H       1  UNL1        0.1192
@<TRIPOS>BOND
     1    18    19    1
     2    19    13    1
     3    13    14   ar
     4    14    15   ar
     5    15    16   ar
     6    16     1    1
     7     1     2   ar
     8     2     3   ar
     9     3     4   ar
    10     4     5   ar
    11     5     6   ar
    12     6     7    1
    13     7     8   ar
    14     8     9   ar
    15     9    10   ar
    16    10    11   ar
    17    11    12   ar
    18    16    17   ar
    19    17    13   ar
    20     6     1   ar
    21    12     7   ar
    22    18    20    1
    23    18    21    1
