@<TRIPOS>MOLECULE
*****
 26 28 0 0 0
SMALL
GASTEIGER

@<TRIPOS>ATOM
      1 C          62.1138   89.2580   10.8684 C.2     1  UNL1        0.2461
      2 O          61.3483   89.6850    9.6512 O.2     1  UNL1       -0.2701
      3 N          61.9167   87.8828   11.4341 N.am    1  UNL1       -0.2969
      4 H          62.4191   87.6025   12.2330 H       1  UNL1        0.1501
      5 N          66.4837   92.8049   16.3407 N.pl3   1  UNL1       -0.3375
      6 C          65.7657   92.3201   15.1162 C.ar    1  UNL1        0.1567
      7 N          65.8950   92.8899   13.7347 N.ar    1  UNL1       -0.2245
      8 C          65.0016   92.1024   12.8229 C.ar    1  UNL1        0.0892
      9 C          64.7205   92.2109   11.3535 C.ar    1  UNL1        0.0198
     10 C          63.7580   91.2628   10.7020 C.ar    1  UNL1        0.0061
     11 C          63.0764   90.2061   11.5199 C.ar    1  UNL1        0.0540
     12 C          63.3574   90.0976   12.9893 C.ar    1  UNL1        0.0126
     13 C          64.3200   91.0458   13.6408 C.ar    1  UNL1        0.0498
     14 S          64.7923   91.1803   15.0581 S.2     1  UNL1       -0.0520
     15 H          67.1068   93.5645   16.2776 H       1  UNL1        0.1442
     16 H          66.3320   92.3634   17.2075 H       1  UNL1        0.1442
     17 C          60.9541   86.9346   10.7825 C.3     1  UNL1        0.1178
     18 C          61.3245   86.2549    9.4977 C.ar    1  UNL1        0.0104
     19 C          62.6564   85.5781    9.3641 C.ar    1  UNL1       -0.0014
     20 C          63.0268   84.8984    8.0793 C.ar    1  UNL1       -0.0002
     21 C          62.0652   84.8956    6.9280 C.ar    1  UNL1        0.0012
     22 C          60.7333   85.5724    7.0616 C.ar    1  UNL1        0.0138
     23 C          60.3629   86.2521    8.3465 C.ar    1  UNL1        0.0391
     24 N          59.0310   86.9290    8.4801 N.pl3   1  UNL1       -0.3572
     25 H          58.3999   86.9272    7.7245 H       1  UNL1        0.1423
     26 H          58.7879   87.3751    9.3234 H       1  UNL1        0.1423
@<TRIPOS>BOND
     1     5     6    1
     2     6     7   ar
     3     7     8   ar
     4     8     9   ar
     5     9    10   ar
     6    10    11   ar
     7    11     1    1
     8     1     2    2
     9     1     3   am
    10     3    17    1
    11    17    18    1
    12    18    19   ar
    13    19    20   ar
    14    20    21   ar
    15    21    22   ar
    16    22    23   ar
    17    23    24    1
    18    11    12   ar
    19    12    13   ar
    20    13    14   ar
    21    14     6   ar
    22    13     8   ar
    23    23    18   ar
    24     5    15    1
    25     5    16    1
    26     3     4    1
    27    24    25    1
    28    24    26    1
@<TRIPOS>MOLECULE
*****
 26 28 0 0 0
SMALL
GASTEIGER

@<TRIPOS>ATOM
      1 C          62.7808   89.7821   12.2919 C.2     1  UNL1        0.2461
      2 O          63.0288   88.3208   12.5222 O.2     1  UNL1       -0.2701
      3 N          61.4317   90.2507   11.8335 N.am    1  UNL1       -0.2969
      4 H          61.2689   91.2099   11.6824 H       1  UNL1        0.1501
      5 N          68.4419   93.9037   15.8398 N.pl3   1  UNL1       -0.3375
      6 C          67.4261   93.2763   14.9318 C.ar    1  UNL1        0.1567
      7 N          67.1873   93.6345   13.4949 N.ar    1  UNL1       -0.2245
      8 C          66.0843   92.7601   12.9763 C.ar    1  UNL1        0.0892
      9 C          65.4260   92.6661   11.6318 C.ar    1  UNL1        0.0198
     10 C          64.3249   91.6734   11.4037 C.ar    1  UNL1        0.0061
     11 C          63.8820   90.7748   12.5201 C.ar    1  UNL1        0.0540
     12 C          64.5403   90.8688   13.8646 C.ar    1  UNL1        0.0126
     13 C          65.6414   91.8615   14.0927 C.ar    1  UNL1        0.0498
     14 S          66.4707   92.1805   15.3012 S.2     1  UNL1       -0.0520
     15 H          69.0270   94.6204   15.5032 H       1  UNL1        0.1442
     16 H          68.5236   93.5988   16.7723 H       1  UNL1        0.1442
     17 C          60.3305   89.2580   11.6053 C.3     1  UNL1        0.1178
     18 C          60.2790   88.4757   10.3266 C.ar    1  UNL1        0.0104
     19 C          59.8302   89.1397    9.0586 C.ar    1  UNL1       -0.0014
     20 C          59.7788   88.3574    7.7799 C.ar    1  UNL1       -0.0002
     21 C          60.1762   86.9110    7.7690 C.ar    1  UNL1        0.0012
     22 C          60.6250   86.2470    9.0369 C.ar    1  UNL1        0.0138
     23 C          60.6764   87.0294   10.3157 C.ar    1  UNL1        0.0391
     24 N          61.1252   86.3654   11.5837 N.pl3   1  UNL1       -0.3572
     25 H          61.3860   85.4161   11.5766 H       1  UNL1        0.1423
     26 H          61.1590   86.8789   12.4230 H       1  UNL1        0.1423
@<TRIPOS>BOND
     1     5     6    1
     2     6     7   ar
     3     7     8   ar
     4     8     9   ar
     5     9    10   ar
     6    10    11   ar
     7    11     1    1
     8     1     2    2
     9     1     3   am
    10     3    17    1
    11    17    18    1
    12    18    19   ar
    13    19    20   ar
    14    20    21   ar
    15    21    22   ar
    16    22    23   ar
    17    23    24    1
    18    11    12   ar
    19    12    13   ar
    20    13    14   ar
    21    14     6   ar
    22    13     8   ar
    23    23    18   ar
    24     5    15    1
    25     5    16    1
    26     3     4    1
    27    24    25    1
    28    24    26    1
@<TRIPOS>MOLECULE
*****
 26 28 0 0 0
SMALL
GASTEIGER

@<TRIPOS>ATOM
      1 C          62.4811   88.4874   11.6046 C.2     1  UNL1        0.2461
      2 O          62.6378   87.1520   12.2696 O.2     1  UNL1       -0.2701
      3 N          61.4749   88.6650   10.5064 N.am    1  UNL1       -0.2969
      4 H          61.3721   89.5414   10.0700 H       1  UNL1        0.1501
      5 N          66.6559   95.1309   11.3640 N.pl3   1  UNL1       -0.3375
      6 C          65.9288   93.8598   11.6891 C.ar    1  UNL1        0.1567
      7 N          65.8573   93.2049   13.0367 N.ar    1  UNL1       -0.2245
      8 C          65.0299   91.9608   12.9042 C.ar    1  UNL1        0.0892
      9 C          64.6202   90.9170   13.9005 C.ar    1  UNL1        0.0198
     10 C          63.7706   89.7593   13.4673 C.ar    1  UNL1        0.0061
     11 C          63.3307   89.6453   12.0378 C.ar    1  UNL1        0.0540
     12 C          63.7404   90.6890   11.0415 C.ar    1  UNL1        0.0126
     13 C          64.5900   91.8468   11.4747 C.ar    1  UNL1        0.0498
     14 S          65.1456   93.0205   10.7238 S.2     1  UNL1       -0.0520
     15 H          67.1445   95.6129   12.0699 H       1  UNL1        0.1442
     16 H          66.6445   95.4833   10.4448 H       1  UNL1        0.1442
     17 C          60.6253   87.5071   10.0732 C.3     1  UNL1        0.1178
     18 C          61.1114   86.5810    8.9981 C.ar    1  UNL1        0.0104
     19 C          62.5273   86.0862    9.0181 C.ar    1  UNL1       -0.0014
     20 C          63.0134   85.1601    7.9430 C.ar    1  UNL1       -0.0002
     21 C          62.0836   84.7287    6.8478 C.ar    1  UNL1        0.0012
     22 C          60.6677   85.2234    6.8278 C.ar    1  UNL1        0.0138
     23 C          60.1816   86.1496    7.9030 C.ar    1  UNL1        0.0391
     24 N          58.7657   86.6443    7.8830 N.pl3   1  UNL1       -0.3572
     25 H          58.1554   86.3612    7.1642 H       1  UNL1        0.1423
     26 H          58.4466   87.2522    8.5887 H       1  UNL1        0.1423
@<TRIPOS>BOND
     1     5     6    1
     2     6     7   ar
     3     7     8   ar
     4     8     9   ar
     5     9    10   ar
     6    10    11   ar
     7    11     1    1
     8     1     2    2
     9     1     3   am
    10     3    17    1
    11    17    18    1
    12    18    19   ar
    13    19    20   ar
    14    20    21   ar
    15    21    22   ar
    16    22    23   ar
    17    23    24    1
    18    11    12   ar
    19    12    13   ar
    20    13    14   ar
    21    14     6   ar
    22    13     8   ar
    23    23    18   ar
    24     5    15    1
    25     5    16    1
    26     3     4    1
    27    24    25    1
    28    24    26    1
@<TRIPOS>MOLECULE
*****
 26 28 0 0 0
SMALL
GASTEIGER

@<TRIPOS>ATOM
      1 C          63.3994   89.1156   12.6359 C.2     1  UNL1        0.2461
      2 O          63.5305   87.9350   13.5519 O.2     1  UNL1       -0.2701
      3 N          62.4210   89.0781   11.4995 N.am    1  UNL1       -0.2969
      4 H          62.3350   89.8530   10.8984 H       1  UNL1        0.1501
      5 N          68.3710   94.1961   15.9667 N.pl3   1  UNL1       -0.3375
      6 C          67.4084   93.4195   15.1180 C.ar    1  UNL1        0.1567
      7 N          66.8647   93.8455   13.7865 N.ar    1  UNL1       -0.2245
      8 C          65.9408   92.7698   13.2973 C.ar    1  UNL1        0.0892
      9 C          65.1209   92.6427   12.0478 C.ar    1  UNL1        0.0198
     10 C          64.2737   91.4246   11.8273 C.ar    1  UNL1        0.0061
     11 C          64.2466   90.3337   12.8564 C.ar    1  UNL1        0.0540
     12 C          65.0665   90.4608   14.1060 C.ar    1  UNL1        0.0126
     13 C          65.9136   91.6788   14.3264 C.ar    1  UNL1        0.0498
     14 S          66.8207   92.0804   15.4516 S.2     1  UNL1       -0.0520
     15 H          68.7023   95.0711   15.6603 H       1  UNL1        0.1442
     16 H          68.6714   93.8309   16.8302 H       1  UNL1        0.1442
     17 C          61.5738   87.8600   11.2790 C.3     1  UNL1        0.1178
     18 C          62.1481   86.6635   10.5801 C.ar    1  UNL1        0.0104
     19 C          62.3556   86.6905    9.0947 C.ar    1  UNL1       -0.0014
     20 C          62.9299   85.4940    8.3958 C.ar    1  UNL1       -0.0002
     21 C          63.2968   84.2705    9.1822 C.ar    1  UNL1        0.0012
     22 C          63.0893   84.2435   10.6676 C.ar    1  UNL1        0.0138
     23 C          62.5150   85.4401   11.3665 C.ar    1  UNL1        0.0391
     24 N          62.3076   85.4131   12.8518 N.pl3   1  UNL1       -0.3572
     25 H          62.5484   84.6100   13.3680 H       1  UNL1        0.1423
     26 H          61.9306   86.1984   13.3106 H       1  UNL1        0.1423
@<TRIPOS>BOND
     1     5     6    1
     2     6     7   ar
     3     7     8   ar
     4     8     9   ar
     5     9    10   ar
     6    10    11   ar
     7    11     1    1
     8     1     2    2
     9     1     3   am
    10     3    17    1
    11    17    18    1
    12    18    19   ar
    13    19    20   ar
    14    20    21   ar
    15    21    22   ar
    16    22    23   ar
    17    23    24    1
    18    11    12   ar
    19    12    13   ar
    20    13    14   ar
    21    14     6   ar
    22    13     8   ar
    23    23    18   ar
    24     5    15    1
    25     5    16    1
    26     3     4    1
    27    24    25    1
    28    24    26    1
@<TRIPOS>MOLECULE
*****
 26 28 0 0 0
SMALL
GASTEIGER

@<TRIPOS>ATOM
      1 C          63.4116   89.0143   12.6384 C.2     1  UNL1        0.2461
      2 O          63.6636   87.8681   13.5727 O.2     1  UNL1       -0.2701
      3 N          62.3689   88.8932   11.5670 N.am    1  UNL1       -0.2969
      4 H          62.2035   89.6455   10.9538 H       1  UNL1        0.1501
      5 N          66.7910   95.8812   10.8925 N.pl3   1  UNL1       -0.3375
      6 C          66.2630   94.6088   11.4858 C.ar    1  UNL1        0.1567
      7 N          66.4922   94.1282   12.8882 N.ar    1  UNL1       -0.2245
      8 C          65.7839   92.8159   13.0501 C.ar    1  UNL1        0.0892
      9 C          65.6602   91.8793   14.2151 C.ar    1  UNL1        0.0198
     10 C          64.8694   90.6121   14.0779 C.ar    1  UNL1        0.0061
     11 C          64.2024   90.2816   12.7756 C.ar    1  UNL1        0.0540
     12 C          64.3262   91.2182   11.6106 C.ar    1  UNL1        0.0126
     13 C          65.1170   92.4854   11.7479 C.ar    1  UNL1        0.0498
     14 S          65.4130   93.5934   10.7811 S.2     1  UNL1       -0.0520
     15 H          67.3434   96.4866   11.4379 H       1  UNL1        0.1442
     16 H          66.5852   96.1109    9.9575 H       1  UNL1        0.1442
     17 C          61.5781   87.6259   11.4298 C.3     1  UNL1        0.1178
     18 C          62.1775   86.4394   10.7351 C.ar    1  UNL1        0.0104
     19 C          62.3606   86.4553    9.2464 C.ar    1  UNL1       -0.0014
     20 C          62.9600   85.2687    8.5517 C.ar    1  UNL1       -0.0002
     21 C          63.3764   84.0661    9.3458 C.ar    1  UNL1        0.0012
     22 C          63.1933   84.0501   10.8345 C.ar    1  UNL1        0.0138
     23 C          62.5939   85.2368   11.5291 C.ar    1  UNL1        0.0391
     24 N          62.4108   85.2209   13.0178 N.pl3   1  UNL1       -0.3572
     25 H          62.6841   84.4316   13.5390 H       1  UNL1        0.1423
     26 H          62.0174   85.9997   13.4738 H       1  UNL1        0.1423
@<TRIPOS>BOND
     1     5     6    1
     2     6     7   ar
     3     7     8   ar
     4     8     9   ar
     5     9    10   ar
     6    10    11   ar
     7    11     1    1
     8     1     2    2
     9     1     3   am
    10     3    17    1
    11    17    18    1
    12    18    19   ar
    13    19    20   ar
    14    20    21   ar
    15    21    22   ar
    16    22    23   ar
    17    23    24    1
    18    11    12   ar
    19    12    13   ar
    20    13    14   ar
    21    14     6   ar
    22    13     8   ar
    23    23    18   ar
    24     5    15    1
    25     5    16    1
    26     3     4    1
    27    24    25    1
    28    24    26    1
@<TRIPOS>MOLECULE
*****
 26 28 0 0 0
SMALL
GASTEIGER

@<TRIPOS>ATOM
      1 C          62.8125   89.7419   12.1315 C.2     1  UNL1        0.2461
      2 O          63.1647   88.3370   12.5219 O.2     1  UNL1       -0.2701
      3 N          61.4344   90.0580   11.6308 N.am    1  UNL1       -0.2969
      4 H          61.2032   90.9800   11.3745 H       1  UNL1        0.1501
      5 N          67.4487   95.7908   10.2503 N.pl3   1  UNL1       -0.3375
      6 C          66.6897   94.6537   10.8675 C.ar    1  UNL1        0.1567
      7 N          66.8402   94.1534   12.2736 N.ar    1  UNL1       -0.2245
      8 C          65.8905   93.0078   12.4622 C.ar    1  UNL1        0.0892
      9 C          65.6020   92.1270   13.6415 C.ar    1  UNL1        0.0198
     10 C          64.5760   91.0383   13.5312 C.ar    1  UNL1        0.0061
     11 C          63.8385   90.8305   12.2417 C.ar    1  UNL1        0.0540
     12 C          64.1271   91.7114   11.0624 C.ar    1  UNL1        0.0126
     13 C          65.1531   92.8000   11.1726 C.ar    1  UNL1        0.0498
     14 S          65.6470   93.8173   10.1871 S.2     1  UNL1       -0.0520
     15 H          68.1169   96.2821   10.7807 H       1  UNL1        0.1442
     16 H          67.2786   96.0459    9.3147 H       1  UNL1        0.1442
     17 C          60.4083   88.9693   11.5206 C.3     1  UNL1        0.1178
     18 C          60.3647   88.1007   10.2985 C.ar    1  UNL1        0.0104
     19 C          59.7615   88.6229    9.0283 C.ar    1  UNL1       -0.0014
     20 C          59.7180   87.7543    7.8062 C.ar    1  UNL1       -0.0002
     21 C          60.2776   86.3634    7.8543 C.ar    1  UNL1        0.0012
     22 C          60.8808   85.8412    9.1245 C.ar    1  UNL1        0.0138
     23 C          60.9243   86.7099   10.3466 C.ar    1  UNL1        0.0391
     24 N          61.5275   86.1876   11.6168 N.pl3   1  UNL1       -0.3572
     25 H          61.8948   85.2748   11.6484 H       1  UNL1        0.1423
     26 H          61.5561   86.7577   12.4190 H       1  UNL1        0.1423
@<TRIPOS>BOND
     1     5     6    1
     2     6     7   ar
     3     7     8   ar
     4     8     9   ar
     5     9    10   ar
     6    10    11   ar
     7    11     1    1
     8     1     2    2
     9     1     3   am
    10     3    17    1
    11    17    18    1
    12    18    19   ar
    13    19    20   ar
    14    20    21   ar
    15    21    22   ar
    16    22    23   ar
    17    23    24    1
    18    11    12   ar
    19    12    13   ar
    20    13    14   ar
    21    14     6   ar
    22    13     8   ar
    23    23    18   ar
    24     5    15    1
    25     5    16    1
    26     3     4    1
    27    24    25    1
    28    24    26    1
@<TRIPOS>MOLECULE
*****
 26 28 0 0 0
SMALL
GASTEIGER

@<TRIPOS>ATOM
      1 C          62.4398   88.5284   11.4945 C.2     1  UNL1        0.2461
      2 O          61.1588   88.6589   10.7250 O.2     1  UNL1       -0.2701
      3 N          62.8933   87.1811   11.9732 N.am    1  UNL1       -0.2969
      4 H          63.7340   87.0955   12.4782 H       1  UNL1        0.1501
      5 N          67.0434   93.6466   15.2673 N.pl3   1  UNL1       -0.3375
      6 C          66.1774   92.8582   14.3301 C.ar    1  UNL1        0.1567
      7 N          65.7936   93.2589   12.9365 N.ar    1  UNL1       -0.2245
      8 C          64.9221   92.1790   12.3670 C.ar    1  UNL1        0.0892
      9 C          64.2496   92.0303   11.0345 C.ar    1  UNL1        0.0198
     10 C          63.4222   90.8134   10.7437 C.ar    1  UNL1        0.0061
     11 C          63.2673   89.7453   11.7854 C.ar    1  UNL1        0.0540
     12 C          63.9398   89.8940   13.1179 C.ar    1  UNL1        0.0126
     13 C          64.7672   91.1109   13.4087 C.ar    1  UNL1        0.0498
     14 S          65.5430   91.5307   14.6219 S.2     1  UNL1       -0.0520
     15 H          67.4156   94.5125   14.9828 H       1  UNL1        0.1442
     16 H          67.2396   93.2982   16.1670 H       1  UNL1        0.1442
     17 C          62.0658   85.9642   11.6823 C.3     1  UNL1        0.1178
     18 C          62.6928   84.6024   11.7284 C.ar    1  UNL1        0.0104
     19 C          63.2236   83.9782   10.4719 C.ar    1  UNL1       -0.0014
     20 C          63.8506   82.6164   10.5180 C.ar    1  UNL1       -0.0002
     21 C          63.9468   81.8786   11.8205 C.ar    1  UNL1        0.0012
     22 C          63.4159   82.5027   13.0769 C.ar    1  UNL1        0.0138
     23 C          62.7889   83.8647   13.0308 C.ar    1  UNL1        0.0391
     24 N          62.2580   84.4888   14.2873 N.pl3   1  UNL1       -0.3572
     25 H          62.3211   84.0046   15.1421 H       1  UNL1        0.1423
     26 H          61.8465   85.3827   14.2571 H       1  UNL1        0.1423
@<TRIPOS>BOND
     1     5     6    1
     2     6     7   ar
     3     7     8   ar
     4     8     9   ar
     5     9    10   ar
     6    10    11   ar
     7    11     1    1
     8     1     2    2
     9     1     3   am
    10     3    17    1
    11    17    18    1
    12    18    19   ar
    13    19    20   ar
    14    20    21   ar
    15    21    22   ar
    16    22    23   ar
    17    23    24    1
    18    11    12   ar
    19    12    13   ar
    20    13    14   ar
    21    14     6   ar
    22    13     8   ar
    23    23    18   ar
    24     5    15    1
    25     5    16    1
    26     3     4    1
    27    24    25    1
    28    24    26    1
@<TRIPOS>MOLECULE
*****
 26 28 0 0 0
SMALL
GASTEIGER

@<TRIPOS>ATOM
      1 C          63.8425   88.7894   14.7341 C.2     1  UNL1        0.2461
      2 O          63.1502   89.1321   16.0199 O.2     1  UNL1       -0.2701
      3 N          64.2800   87.3791   14.4705 N.am    1  UNL1       -0.2969
      4 H          64.7343   87.1542   13.6266 H       1  UNL1        0.1501
      5 N          66.8605   95.1186   11.2047 N.pl3   1  UNL1       -0.3375
      6 C          66.1238   93.8869   11.6408 C.ar    1  UNL1        0.1567
      7 N          65.0705   93.1646   10.8540 N.ar    1  UNL1       -0.2245
      8 C          64.6067   91.9926   11.6672 C.ar    1  UNL1        0.0892
      9 C          63.5854   90.9270   11.4002 C.ar    1  UNL1        0.0198
     10 C          63.3307   89.8593   12.4224 C.ar    1  UNL1        0.0061
     11 C          64.0973   89.8572   13.7118 C.ar    1  UNL1        0.0540
     12 C          65.1186   90.9228   13.9788 C.ar    1  UNL1        0.0126
     13 C          65.3733   91.9905   12.9565 C.ar    1  UNL1        0.0498
     14 S          66.3109   93.1612   12.9401 S.2     1  UNL1       -0.0520
     15 H          66.6666   95.5240   10.3288 H       1  UNL1        0.1442
     16 H          67.5380   95.5216   11.7944 H       1  UNL1        0.1442
     17 C          64.0252   86.3113   15.4929 C.3     1  UNL1        0.1178
     18 C          63.6946   84.9158   15.0534 C.ar    1  UNL1        0.0104
     19 C          62.2987   84.3903   15.2123 C.ar    1  UNL1       -0.0014
     20 C          61.9682   82.9947   14.7729 C.ar    1  UNL1       -0.0002
     21 C          63.0336   82.1247   14.1744 C.ar    1  UNL1        0.0012
     22 C          64.4294   82.6502   14.0155 C.ar    1  UNL1        0.0138
     23 C          64.7600   84.0458   14.4550 C.ar    1  UNL1        0.0391
     24 N          66.1559   84.5714   14.2960 N.pl3   1  UNL1       -0.3572
     25 H          66.8551   84.0004   13.9033 H       1  UNL1        0.1423
     26 H          66.3728   85.4873   14.5845 H       1  UNL1        0.1423
@<TRIPOS>BOND
     1     5     6    1
     2     6     7   ar
     3     7     8   ar
     4     8     9   ar
     5     9    10   ar
     6    10    11   ar
     7    11     1    1
     8     1     2    2
     9     1     3   am
    10     3    17    1
    11    17    18    1
    12    18    19   ar
    13    19    20   ar
    14    20    21   ar
    15    21    22   ar
    16    22    23   ar
    17    23    24    1
    18    11    12   ar
    19    12    13   ar
    20    13    14   ar
    21    14     6   ar
    22    13     8   ar
    23    23    18   ar
    24     5    15    1
    25     5    16    1
    26     3     4    1
    27    24    25    1
    28    24    26    1
@<TRIPOS>MOLECULE
*****
 26 28 0 0 0
SMALL
GASTEIGER

@<TRIPOS>ATOM
      1 C          62.7975   85.3221   11.6765 C.2     1  UNL1        0.2461
      2 O          63.3200   84.1284   10.9333 O.2     1  UNL1       -0.2701
      3 N          62.8905   85.3738   13.1726 N.am    1  UNL1       -0.2969
      4 H          62.5476   86.1573   13.6604 H       1  UNL1        0.1501
      5 N          58.5637   89.3179    6.4104 N.pl3   1  UNL1       -0.3375
      6 C          59.4456   88.8152    7.5147 C.ar    1  UNL1        0.1567
      7 N          60.2041   89.6628    8.4925 N.ar    1  UNL1       -0.2245
      8 C          60.9512   88.7480    9.4171 C.ar    1  UNL1        0.0892
      9 C          61.8634   89.0191   10.5766 C.ar    1  UNL1        0.0198
     10 C          62.4788   87.8772   11.3297 C.ar    1  UNL1        0.0061
     11 C          62.1820   86.4641   10.9233 C.ar    1  UNL1        0.0540
     12 C          61.2699   86.1929    9.7638 C.ar    1  UNL1        0.0126
     13 C          60.6545   87.3349    9.0108 C.ar    1  UNL1        0.0498
     14 S          59.7240   87.3764    7.8350 S.2     1  UNL1       -0.0520
     15 H          58.4429   90.2861    6.2791 H       1  UNL1        0.1442
     16 H          58.1056   88.6797    5.8171 H       1  UNL1        0.1442
     17 C          63.5060   84.2318   13.9258 C.3     1  UNL1        0.1178
     18 C          62.9716   82.8416   13.7483 C.ar    1  UNL1        0.0104
     19 C          61.6958   82.4363   14.4252 C.ar    1  UNL1       -0.0014
     20 C          61.1614   81.0460   14.2477 C.ar    1  UNL1       -0.0002
     21 C          61.9028   80.0610   13.3932 C.ar    1  UNL1        0.0012
     22 C          63.1785   80.4663   12.7162 C.ar    1  UNL1        0.0138
     23 C          63.7129   81.8566   12.8938 C.ar    1  UNL1        0.0391
     24 N          64.9886   82.2619   12.2168 N.pl3   1  UNL1       -0.3572
     25 H          65.4752   81.6154   11.6560 H       1  UNL1        0.1423
     26 H          65.3393   83.1744   12.3333 H       1  UNL1        0.1423
@<TRIPOS>BOND
     1     5     6    1
     2     6     7   ar
     3     7     8   ar
     4     8     9   ar
     5     9    10   ar
     6    10    11   ar
     7    11     1    1
     8     1     2    2
     9     1     3   am
    10     3    17    1
    11    17    18    1
    12    18    19   ar
    13    19    20   ar
    14    20    21   ar
    15    21    22   ar
    16    22    23   ar
    17    23    24    1
    18    11    12   ar
    19    12    13   ar
    20    13    14   ar
    21    14     6   ar
    22    13     8   ar
    23    23    18   ar
    24     5    15    1
    25     5    16    1
    26     3     4    1
    27    24    25    1
    28    24    26    1
