@<TRIPOS>MOLECULE
*****
 44 48 0 0 0
SMALL
GASTEIGER

@<TRIPOS>ATOM
      1 C          61.0665   88.6916    9.4150 C.3     1  UNL1        0.0964
      2 C          60.2632   89.8699    8.9499 C.3     1  UNL1        0.0780
      3 N          59.3089   89.7211    7.8023 N.3     1  UNL1       -0.2970
      4 C          59.1578   88.3939    7.1198 C.3     1  UNL1        0.0689
      5 C          59.9610   87.2156    7.5850 C.3     1  UNL1        0.0220
      6 C          60.9154   87.3644    8.7326 C.3     1  UNL1        0.0337
      7 H          59.6011   90.3879    7.0879 H       1  UNL1        0.1233
      8 C          61.7186   86.1861    9.1978 C.ar    1  UNL1       -0.0217
      9 C          61.5412   85.6606   10.5914 C.ar    1  UNL1       -0.0012
     10 C          62.3444   84.4823   11.0566 C.ar    1  UNL1        0.0366
     11 C          63.3251   83.8295   10.1281 C.ar    1  UNL1        0.1387
     12 C          63.5025   84.3550    8.7345 C.ar    1  UNL1        0.0366
     13 C          62.6993   85.5333    8.2693 C.ar    1  UNL1       -0.0012
     14 O          64.1283   82.6512   10.5933 O.3     1  UNL1       -0.4714
     15 C          63.5201   81.6528   11.5330 C.3     1  UNL1        0.2525
     16 C          63.7952   81.7436   13.0048 C.3     1  UNL1        0.2525
     17 O          64.6437   82.8580   13.5418 O.3     1  UNL1       -0.4697
     18 C          64.0737   83.8194   14.5422 C.ar    1  UNL1        0.1596
     19 C          62.6920   83.6054   15.0852 C.ar    1  UNL1        0.0921
     20 CL         61.8802   82.4299   14.6278 Cl      1  UNL1       -0.0791
     21 C          62.1220   84.5668   16.0856 C.ar    1  UNL1        0.0103
     22 C          62.9338   85.7423   16.5430 C.ar    1  UNL1       -0.0200
     23 C          62.3639   86.7037   17.5435 C.3     1  UNL1        0.0311
     24 C          64.3156   85.9564   16.0000 C.ar    1  UNL1        0.0103
     25 C          64.8856   84.9949   14.9996 C.ar    1  UNL1        0.0921
     26 CL         66.2673   85.2090   14.4566 Cl      1  UNL1       -0.0791
     27 N          61.5346   89.3719   11.8784 N.am    1  UNL1       -0.2770
     28 C          62.0209   88.8405   10.5627 C.2     1  UNL1        0.2270
     29 O          63.4615   88.4580   10.3946 O.2     1  UNL1       -0.2748
     30 C          60.0940   89.7545   12.0465 C.3     1  UNL1        0.0758
     31 C          58.7159   89.4382   12.5473 C.3     1  UNL1        0.0215
     32 C          58.9769   90.7333   11.8369 C.3     1  UNL1        0.0215
     33 C          62.4890   89.5209   13.0260 C.3     1  UNL1        0.1209
     34 C          64.9203   92.3294   11.6293 C.ar    1  UNL1       -0.0066
     35 C          65.7831   92.5804   12.8305 C.ar    1  UNL1       -0.0021
     36 C          65.5478   91.8116   14.0967 C.ar    1  UNL1        0.0109
     37 C          64.4498   90.7917   14.1619 C.ar    1  UNL1        0.0553
     38 CL         64.2145   90.0229   15.4282 Cl      1  UNL1       -0.0825
     39 C          63.5870   90.5407   12.9609 C.ar    1  UNL1        0.0080
     40 C          63.8223   91.3096   11.6945 C.ar    1  UNL1       -0.0047
     41 C          65.1556   93.0982   10.3630 C.3     1  UNL1        0.0957
     42 C          66.7187   95.1667   10.1953 C.3     1  UNL1        0.0861
     43 N          65.3537   94.5842   10.4137 N.3     1  UNL1       -0.2926
     44 H          64.7444   94.9869    9.7017 H       1  UNL1        0.1236
@<TRIPOS>BOND
     1    42    43    1
     2    43    41    1
     3    41    34    1
     4    34    35   ar
     5    35    36   ar
     6    36    37   ar
     7    37    38    1
     8    37    39   ar
     9    39    33    1
    10    33    27    1
    11    27    28   am
    12    28    29    2
    13     1    28    1
    14     1     2    1
    15     2     3    1
    16     3     4    1
    17     4     5    1
    18     5     6    1
    19     6     8    1
    20     8     9   ar
    21     9    10   ar
    22    10    11   ar
    23    11    14    1
    24    14    15    1
    25    15    16    1
    26    16    17    1
    27    17    18    1
    28    18    19   ar
    29    19    20    1
    30    19    21   ar
    31    21    22   ar
    32    22    23    1
    33    22    24   ar
    34    24    25   ar
    35    25    26    1
    36    11    12   ar
    37    12    13   ar
    38    27    30    1
    39    30    31    1
    40    31    32    1
    41    39    40   ar
    42    40    34   ar
    43     6     1    1
    44    13     8   ar
    45    32    30    1
    46    25    18   ar
    47    43    44    1
    48     3     7    1
@<TRIPOS>MOLECULE
*****
 44 48 0 0 0
SMALL
GASTEIGER

@<TRIPOS>ATOM
      1 C          61.4061   88.7717   10.7094 C.3     1  UNL1        0.0964
      2 C          60.7041   90.0887   10.5587 C.3     1  UNL1        0.0780
      3 N          59.8171   90.3347    9.3743 N.3     1  UNL1       -0.2970
      4 C          59.6321   89.2636    8.3407 C.3     1  UNL1        0.0689
      5 C          60.3341   87.9466    8.4914 C.3     1  UNL1        0.0220
      6 C          61.2210   87.7006    9.6758 C.3     1  UNL1        0.0337
      7 H          60.1924   91.1499    8.8897 H       1  UNL1        0.1233
      8 C          61.9230   86.3836    9.8265 C.ar    1  UNL1       -0.0217
      9 C          61.6969   85.5492   11.0522 C.ar    1  UNL1       -0.0012
     10 C          62.3989   84.2322   11.2030 C.ar    1  UNL1        0.0366
     11 C          63.3269   83.7496   10.1279 C.ar    1  UNL1        0.1387
     12 C          63.5530   84.5840    8.9021 C.ar    1  UNL1        0.0366
     13 C          62.8510   85.9010    8.7514 C.ar    1  UNL1       -0.0012
     14 O          64.0289   82.4325   10.2786 O.3     1  UNL1       -0.4714
     15 C          63.4393   81.3639   11.1505 C.3     1  UNL1        0.2525
     16 C          63.7313   81.3504   12.6218 C.3     1  UNL1        0.2525
     17 O          64.5891   82.4226   13.2260 O.3     1  UNL1       -0.4697
     18 C          64.0090   83.3656   14.2380 C.ar    1  UNL1        0.1596
     19 C          62.6404   83.1153   14.7984 C.ar    1  UNL1        0.0921
     20 CL         61.8518   81.9219   14.3469 Cl      1  UNL1       -0.0791
     21 C          62.0603   84.0583   15.8105 C.ar    1  UNL1        0.0103
     22 C          62.8489   85.2517   16.2620 C.ar    1  UNL1       -0.0200
     23 C          62.2688   86.1948   17.2741 C.3     1  UNL1        0.0311
     24 C          64.2176   85.5021   15.7016 C.ar    1  UNL1        0.0103
     25 C          64.7977   84.5590   14.6896 C.ar    1  UNL1        0.0921
     26 CL         66.1663   84.8094   14.1291 Cl      1  UNL1       -0.0791
     27 N          63.4156   89.4726   12.1996 N.am    1  UNL1       -0.2770
     28 C          62.2931   88.5258   11.8938 C.2     1  UNL1        0.2270
     29 O          62.0575   87.3331   12.7725 O.2     1  UNL1       -0.2748
     30 C          63.6512   90.6653   11.3210 C.3     1  UNL1        0.0758
     31 C          63.3634   91.4285   10.0622 C.3     1  UNL1        0.0215
     32 C          64.3470   91.9678   11.0580 C.3     1  UNL1        0.0215
     33 C          64.3026   89.2267   13.3840 C.3     1  UNL1        0.1209
     34 C          65.9694   92.4704   14.9494 C.ar    1  UNL1       -0.0066
     35 C          65.2185   92.5786   16.2434 C.ar    1  UNL1       -0.0021
     36 C          64.1624   91.5695   16.5843 C.ar    1  UNL1        0.0109
     37 C          63.8571   90.4522   15.6312 C.ar    1  UNL1        0.0553
     38 CL         62.8009   89.4431   15.9720 Cl      1  UNL1       -0.0825
     39 C          64.6079   90.3440   14.3372 C.ar    1  UNL1        0.0080
     40 C          65.6641   91.3531   13.9963 C.ar    1  UNL1       -0.0047
     41 C          67.0256   93.4795   14.6085 C.3     1  UNL1        0.0957
     42 C          68.9152   92.4627   16.0733 C.3     1  UNL1        0.0861
     43 N          68.4740   93.1478   14.8139 N.3     1  UNL1       -0.2926
     44 H          68.7510   92.5457   14.0386 H       1  UNL1        0.1236
@<TRIPOS>BOND
     1    42    43    1
     2    43    41    1
     3    41    34    1
     4    34    35   ar
     5    35    36   ar
     6    36    37   ar
     7    37    38    1
     8    37    39   ar
     9    39    33    1
    10    33    27    1
    11    27    28   am
    12    28    29    2
    13     1    28    1
    14     1     2    1
    15     2     3    1
    16     3     4    1
    17     4     5    1
    18     5     6    1
    19     6     8    1
    20     8     9   ar
    21     9    10   ar
    22    10    11   ar
    23    11    14    1
    24    14    15    1
    25    15    16    1
    26    16    17    1
    27    17    18    1
    28    18    19   ar
    29    19    20    1
    30    19    21   ar
    31    21    22   ar
    32    22    23    1
    33    22    24   ar
    34    24    25   ar
    35    25    26    1
    36    11    12   ar
    37    12    13   ar
    38    27    30    1
    39    30    31    1
    40    31    32    1
    41    39    40   ar
    42    40    34   ar
    43     6     1    1
    44    13     8   ar
    45    32    30    1
    46    25    18   ar
    47    43    44    1
    48     3     7    1
@<TRIPOS>MOLECULE
*****
 44 48 0 0 0
SMALL
GASTEIGER

@<TRIPOS>ATOM
      1 C          63.3197   86.9773   12.8703 C.3     1  UNL1        0.0964
      2 C          64.1125   86.4846   14.0445 C.3     1  UNL1        0.0780
      3 N          64.0768   85.0321   14.4172 N.3     1  UNL1       -0.2970
      4 C          63.2483   84.0724   13.6158 C.3     1  UNL1        0.0689
      5 C          62.4554   84.5651   12.4417 C.3     1  UNL1        0.0220
      6 C          62.4912   86.0176   12.0689 C.3     1  UNL1        0.0337
      7 H          63.7376   84.9829   15.3779 H       1  UNL1        0.1233
      8 C          61.6983   86.5103   10.8948 C.ar    1  UNL1       -0.0217
      9 C          62.0249   86.0263    9.5131 C.ar    1  UNL1       -0.0012
     10 C          61.2320   86.5190    8.3389 C.ar    1  UNL1        0.0366
     11 C          60.1127   87.4957    8.5464 C.ar    1  UNL1        0.1387
     12 C          59.7862   87.9797    9.9281 C.ar    1  UNL1        0.0366
     13 C          60.5790   87.4869   11.1023 C.ar    1  UNL1       -0.0012
     14 O          59.3199   87.9884    7.3723 O.3     1  UNL1       -0.4714
     15 C          59.3890   89.4328    6.9736 C.3     1  UNL1        0.2525
     16 C          59.7974   89.8073    5.5797 C.3     1  UNL1        0.2525
     17 O          60.8658   90.8376    5.3625 O.3     1  UNL1       -0.4697
     18 C          60.8963   91.6294    4.0888 C.ar    1  UNL1        0.1596
     19 C          62.1224   91.6133    3.2249 C.ar    1  UNL1        0.0921
     20 CL         63.3180   90.8054    3.6346 Cl      1  UNL1       -0.0791
     21 C          62.1529   92.4051    1.9513 C.ar    1  UNL1        0.0103
     22 C          60.9574   93.2130    1.5416 C.ar    1  UNL1       -0.0200
     23 C          60.9879   94.0048    0.2679 C.3     1  UNL1        0.0311
     24 C          59.7312   93.2291    2.4055 C.ar    1  UNL1        0.0103
     25 C          59.7007   92.4373    3.6791 C.ar    1  UNL1        0.0921
     26 CL         58.4746   92.4534    4.5431 Cl      1  UNL1       -0.0791
     27 N          63.3760   89.4789   13.5695 N.am    1  UNL1       -0.2770
     28 C          63.3554   88.4299   12.4976 C.2     1  UNL1        0.2270
     29 O          63.3707   88.8333   11.0530 O.2     1  UNL1       -0.2748
     30 C          63.3607   89.0755   15.0142 C.3     1  UNL1        0.0758
     31 C          63.1568   89.4253   16.4585 C.3     1  UNL1        0.0215
     32 C          63.5383   88.0270   16.0720 C.3     1  UNL1        0.0215
     33 C          63.4117   90.9315   13.1968 C.3     1  UNL1        0.1209
     34 C          67.1440   92.2590   12.9566 C.ar    1  UNL1       -0.0066
     35 C          67.1844   92.7357   11.5349 C.ar    1  UNL1       -0.0021
     36 C          65.9672   92.6110   10.6672 C.ar    1  UNL1        0.0109
     37 C          64.7096   92.0096   11.2212 C.ar    1  UNL1        0.0553
     38 CL         63.4925   91.8848   10.3535 Cl      1  UNL1       -0.0825
     39 C          64.6693   91.5329   12.6428 C.ar    1  UNL1        0.0080
     40 C          65.8865   91.6576   13.5106 C.ar    1  UNL1       -0.0047
     41 C          68.3612   92.3837   13.8243 C.3     1  UNL1        0.0957
     42 C          68.1746   92.4881   16.4136 C.3     1  UNL1        0.0861
     43 N          68.4045   91.6995   15.1584 N.3     1  UNL1       -0.2926
     44 H          67.6951   90.9670   15.1368 H       1  UNL1        0.1236
@<TRIPOS>BOND
     1    42    43    1
     2    43    41    1
     3    41    34    1
     4    34    35   ar
     5    35    36   ar
     6    36    37   ar
     7    37    38    1
     8    37    39   ar
     9    39    33    1
    10    33    27    1
    11    27    28   am
    12    28    29    2
    13     1    28    1
    14     1     2    1
    15     2     3    1
    16     3     4    1
    17     4     5    1
    18     5     6    1
    19     6     8    1
    20     8     9   ar
    21     9    10   ar
    22    10    11   ar
    23    11    14    1
    24    14    15    1
    25    15    16    1
    26    16    17    1
    27    17    18    1
    28    18    19   ar
    29    19    20    1
    30    19    21   ar
    31    21    22   ar
    32    22    23    1
    33    22    24   ar
    34    24    25   ar
    35    25    26    1
    36    11    12   ar
    37    12    13   ar
    38    27    30    1
    39    30    31    1
    40    31    32    1
    41    39    40   ar
    42    40    34   ar
    43     6     1    1
    44    13     8   ar
    45    32    30    1
    46    25    18   ar
    47    43    44    1
    48     3     7    1
@<TRIPOS>MOLECULE
*****
 44 48 0 0 0
SMALL
GASTEIGER

@<TRIPOS>ATOM
      1 C          63.4570   86.9905   13.0195 C.3     1  UNL1        0.0964
      2 C          64.2561   86.4960   14.1887 C.3     1  UNL1        0.0780
      3 N          64.3036   85.0290   14.4979 N.3     1  UNL1       -0.2970
      4 C          63.5520   84.0566   13.6381 C.3     1  UNL1        0.0689
      5 C          62.7530   84.5511   12.4689 C.3     1  UNL1        0.0220
      6 C          62.7055   86.0180   12.1596 C.3     1  UNL1        0.0337
      7 H          63.9496   84.9168   15.4479 H       1  UNL1        0.1233
      8 C          61.9064   86.5126   10.9905 C.ar    1  UNL1       -0.0217
      9 C          60.7050   87.3816   11.2170 C.ar    1  UNL1       -0.0012
     10 C          59.9059   87.8762   10.0478 C.ar    1  UNL1        0.0366
     11 C          60.3082   87.5016    8.6522 C.ar    1  UNL1        0.1387
     12 C          61.5096   86.6325    8.4257 C.ar    1  UNL1        0.0366
     13 C          62.3087   86.1380    9.5949 C.ar    1  UNL1       -0.0012
     14 O          59.5091   87.9961    7.4830 O.3     1  UNL1       -0.4714
     15 C          59.4890   89.4593    7.1535 C.3     1  UNL1        0.2525
     16 C          59.7015   89.9126    5.7395 C.3     1  UNL1        0.2525
     17 O          60.8701   90.7901    5.4008 O.3     1  UNL1       -0.4697
     18 C          60.8685   91.5828    4.1274 C.ar    1  UNL1        0.1596
     19 C          62.0951   91.6187    3.2648 C.ar    1  UNL1        0.0921
     20 CL         63.3232   90.8618    3.6755 Cl      1  UNL1       -0.0791
     21 C          62.0935   92.4114    1.9914 C.ar    1  UNL1        0.0103
     22 C          60.8654   93.1683    1.5806 C.ar    1  UNL1       -0.0200
     23 C          60.8638   93.9610    0.3072 C.3     1  UNL1        0.0311
     24 C          59.6387   93.1324    2.4432 C.ar    1  UNL1        0.0103
     25 C          59.6403   92.3397    3.7166 C.ar    1  UNL1        0.0921
     26 CL         58.4137   92.3038    4.5793 Cl      1  UNL1       -0.0791
     27 N          63.3247   89.4568   13.8257 N.am    1  UNL1       -0.2770
     28 C          63.4095   88.4576   12.7103 C.2     1  UNL1        0.2270
     29 O          63.4469   88.9253   11.2855 O.2     1  UNL1       -0.2748
     30 C          63.2874   88.9891   15.2504 C.3     1  UNL1        0.0758
     31 C          63.4515   87.8948   16.2631 C.3     1  UNL1        0.0215
     32 C          63.0587   89.2733   16.7054 C.3     1  UNL1        0.0215
     33 C          63.2773   90.9239   13.5164 C.3     1  UNL1        0.1209
     34 C          66.1628   92.7408   11.4861 C.ar    1  UNL1       -0.0066
     35 C          67.0769   93.1544   12.6013 C.ar    1  UNL1       -0.0021
     36 C          66.7244   92.8245   14.0214 C.ar    1  UNL1        0.0109
     37 C          65.4578   92.0810   14.3265 C.ar    1  UNL1        0.0553
     38 CL         65.1053   91.7511   15.7466 Cl      1  UNL1       -0.0825
     39 C          64.5438   91.6674   13.2114 C.ar    1  UNL1        0.0080
     40 C          64.8963   91.9973   11.7911 C.ar    1  UNL1       -0.0047
     41 C          66.5154   93.0707   10.0659 C.3     1  UNL1        0.0957
     42 C          68.8239   92.3853    9.0907 C.3     1  UNL1        0.0861
     43 N          67.9290   93.4201    9.7058 N.3     1  UNL1       -0.2926
     44 H          67.8815   94.1974    9.0471 H       1  UNL1        0.1236
@<TRIPOS>BOND
     1    42    43    1
     2    43    41    1
     3    41    34    1
     4    34    35   ar
     5    35    36   ar
     6    36    37   ar
     7    37    38    1
     8    37    39   ar
     9    39    33    1
    10    33    27    1
    11    27    28   am
    12    28    29    2
    13     1    28    1
    14     1     2    1
    15     2     3    1
    16     3     4    1
    17     4     5    1
    18     5     6    1
    19     6     8    1
    20     8     9   ar
    21     9    10   ar
    22    10    11   ar
    23    11    14    1
    24    14    15    1
    25    15    16    1
    26    16    17    1
    27    17    18    1
    28    18    19   ar
    29    19    20    1
    30    19    21   ar
    31    21    22   ar
    32    22    23    1
    33    22    24   ar
    34    24    25   ar
    35    25    26    1
    36    11    12   ar
    37    12    13   ar
    38    27    30    1
    39    30    31    1
    40    31    32    1
    41    39    40   ar
    42    40    34   ar
    43     6     1    1
    44    13     8   ar
    45    32    30    1
    46    25    18   ar
    47    43    44    1
    48     3     7    1
@<TRIPOS>MOLECULE
*****
 44 48 0 0 0
SMALL
GASTEIGER

@<TRIPOS>ATOM
      1 C          62.4812   84.5473   12.8274 C.3     1  UNL1        0.0964
      2 C          62.0694   83.1091   12.9377 C.3     1  UNL1        0.0780
      3 N          62.3146   82.3543   14.2106 N.3     1  UNL1       -0.2970
      4 C          62.9714   83.0377   15.3731 C.3     1  UNL1        0.0689
      5 C          63.3832   84.4759   15.2627 C.3     1  UNL1        0.0220
      6 C          63.1380   85.2307   13.9899 C.3     1  UNL1        0.0337
      7 H          62.8998   81.5542   13.9704 H       1  UNL1        0.1233
      8 C          63.5497   86.6688   13.8796 C.ar    1  UNL1       -0.0217
      9 C          64.3222   87.3152   14.9911 C.ar    1  UNL1       -0.0012
     10 C          64.7339   88.7534   14.8807 C.ar    1  UNL1        0.0366
     11 C          64.3732   89.5452   13.6589 C.ar    1  UNL1        0.1387
     12 C          63.6007   88.8988   12.5474 C.ar    1  UNL1        0.0366
     13 C          63.1890   87.4606   12.6577 C.ar    1  UNL1       -0.0012
     14 O          64.7849   90.9833   13.5486 O.3     1  UNL1       -0.4714
     15 C          66.0250   91.4638   14.2423 C.3     1  UNL1        0.2525
     16 C          67.1058   92.1475   13.4585 C.3     1  UNL1        0.2525
     17 O          67.2011   91.9421   11.9756 O.3     1  UNL1       -0.4697
     18 C          67.2088   93.1253   11.0536 C.ar    1  UNL1        0.1596
     19 C          67.7569   92.9897    9.6640 C.ar    1  UNL1        0.0921
     20 CL         68.2975   91.6710    9.1964 Cl      1  UNL1       -0.0791
     21 C          67.7646   94.1729    8.7420 C.ar    1  UNL1        0.0103
     22 C          67.2240   95.4916    9.2096 C.ar    1  UNL1       -0.0200
     23 C          67.2317   96.6748    8.2876 C.3     1  UNL1        0.0311
     24 C          66.6758   95.6273   10.5993 C.ar    1  UNL1        0.0103
     25 C          66.6682   94.4441   11.5213 C.ar    1  UNL1        0.0921
     26 CL         66.1200   94.5797   12.9109 Cl      1  UNL1       -0.0791
     27 N          62.9202   84.8795   10.2883 N.am    1  UNL1       -0.2770
     28 C          62.2360   85.3021   11.5545 C.2     1  UNL1        0.2270
     29 O          61.3066   86.4794   11.5478 O.2     1  UNL1       -0.2748
     30 C          63.8496   83.7021   10.2950 C.3     1  UNL1        0.0758
     31 C          64.9803   82.9433   10.9238 C.3     1  UNL1        0.0215
     32 C          64.3285   82.4217    9.6776 C.3     1  UNL1        0.0215
     33 C          62.6750   85.6342    9.0154 C.3     1  UNL1        0.1209
     34 C          61.3221   89.3020    9.6988 C.ar    1  UNL1       -0.0066
     35 C          59.9852   89.2419    9.0212 C.ar    1  UNL1       -0.0021
     36 C          59.5450   87.9792    8.3417 C.ar    1  UNL1        0.0109
     37 C          60.4416   86.7767    8.3397 C.ar    1  UNL1        0.0553
     38 CL         60.0013   85.5140    7.6602 Cl      1  UNL1       -0.0825
     39 C          61.7784   86.8368    9.0173 C.ar    1  UNL1        0.0080
     40 C          62.2187   88.0995    9.6969 C.ar    1  UNL1       -0.0047
     41 C          61.7623   90.5647   10.3784 C.3     1  UNL1        0.0957
     42 C          64.0321   91.8271   10.4483 C.3     1  UNL1        0.0861
     43 N          62.7733   91.4569    9.7212 N.3     1  UNL1       -0.2926
     44 H          63.0573   90.9941    8.8577 H       1  UNL1        0.1236
@<TRIPOS>BOND
     1    42    43    1
     2    43    41    1
     3    41    34    1
     4    34    35   ar
     5    35    36   ar
     6    36    37   ar
     7    37    38    1
     8    37    39   ar
     9    39    33    1
    10    33    27    1
    11    27    28   am
    12    28    29    2
    13     1    28    1
    14     1     2    1
    15     2     3    1
    16     3     4    1
    17     4     5    1
    18     5     6    1
    19     6     8    1
    20     8     9   ar
    21     9    10   ar
    22    10    11   ar
    23    11    14    1
    24    14    15    1
    25    15    16    1
    26    16    17    1
    27    17    18    1
    28    18    19   ar
    29    19    20    1
    30    19    21   ar
    31    21    22   ar
    32    22    23    1
    33    22    24   ar
    34    24    25   ar
    35    25    26    1
    36    11    12   ar
    37    12    13   ar
    38    27    30    1
    39    30    31    1
    40    31    32    1
    41    39    40   ar
    42    40    34   ar
    43     6     1    1
    44    13     8   ar
    45    32    30    1
    46    25    18   ar
    47    43    44    1
    48     3     7    1
@<TRIPOS>MOLECULE
*****
 44 48 0 0 0
SMALL
GASTEIGER

@<TRIPOS>ATOM
      1 C          62.3602   83.5249   12.7609 C.3     1  UNL1        0.0964
      2 C          62.1120   82.2364   12.0340 C.3     1  UNL1        0.0780
      3 N          62.0733   80.9429   12.7925 N.3     1  UNL1       -0.2970
      4 C          62.2826   80.9378   14.2777 C.3     1  UNL1        0.0689
      5 C          62.5307   82.2263   15.0046 C.3     1  UNL1        0.0220
      6 C          62.5695   83.5198   14.2462 C.3     1  UNL1        0.0337
      7 H          62.7954   80.3445   12.3913 H       1  UNL1        0.1233
      8 C          62.8177   84.8083   14.9730 C.ar    1  UNL1       -0.0217
      9 C          61.9456   85.1967   16.1300 C.ar    1  UNL1       -0.0012
     10 C          62.1938   86.4851   16.8568 C.ar    1  UNL1        0.0366
     11 C          63.3140   87.3852   16.4267 C.ar    1  UNL1        0.1387
     12 C          64.1860   86.9967   15.2697 C.ar    1  UNL1        0.0366
     13 C          63.9379   85.7083   14.5429 C.ar    1  UNL1       -0.0012
     14 O          63.5621   88.6736   17.1535 O.3     1  UNL1       -0.4714
     15 C          63.0292   89.9618   16.5998 C.3     1  UNL1        0.2525
     16 C          63.9351   90.8815   15.8360 C.3     1  UNL1        0.2525
     17 O          64.8775   90.3247   14.8103 O.3     1  UNL1       -0.4697
     18 C          65.2759   91.1570   13.6277 C.ar    1  UNL1        0.1596
     19 C          64.3623   91.2625   12.4428 C.ar    1  UNL1        0.0921
     20 CL         63.0502   90.5357   12.4404 Cl      1  UNL1       -0.0791
     21 C          64.7608   92.0949   11.2602 C.ar    1  UNL1        0.0103
     22 C          66.0729   92.8217   11.2626 C.ar    1  UNL1       -0.0200
     23 C          66.4713   93.6540   10.0800 C.3     1  UNL1        0.0311
     24 C          66.9866   92.7162   12.4475 C.ar    1  UNL1        0.0103
     25 C          66.5881   91.8839   13.6301 C.ar    1  UNL1        0.0921
     26 CL         67.5018   91.7783   14.8150 Cl      1  UNL1       -0.0791
     27 N          63.1743   84.9140   10.7219 N.am    1  UNL1       -0.2770
     28 C          62.3990   84.8184   12.0024 C.2     1  UNL1        0.2270
     29 O          61.6624   86.0163   12.5244 O.2     1  UNL1       -0.2748
     30 C          63.9109   83.7162   10.1999 C.3     1  UNL1        0.0758
     31 C          64.9061   82.6126   10.4039 C.3     1  UNL1        0.0215
     32 C          64.1914   82.7450    9.0917 C.3     1  UNL1        0.0215
     33 C          63.2131   86.2076    9.9634 C.3     1  UNL1        0.1209
     34 C          60.2478   88.8401    9.7981 C.ar    1  UNL1       -0.0066
     35 C          59.3755   88.2189    8.7476 C.ar    1  UNL1       -0.0021
     36 C          59.7825   86.9273    8.1025 C.ar    1  UNL1        0.0109
     37 C          61.0617   86.2569    8.5077 C.ar    1  UNL1        0.0553
     38 CL         61.4686   84.9654    7.8626 Cl      1  UNL1       -0.0825
     39 C          61.9339   86.8780    9.5581 C.ar    1  UNL1        0.0080
     40 C          61.5270   88.1696   10.2033 C.ar    1  UNL1       -0.0047
     41 C          59.8408   90.1316   10.4433 C.3     1  UNL1        0.0957
     42 C          58.8075   89.1197   12.6016 C.3     1  UNL1        0.0861
     43 N          59.6108   90.1903   11.9243 N.3     1  UNL1       -0.2926
     44 H          60.5305   90.1918   12.3654 H       1  UNL1        0.1236
@<TRIPOS>BOND
     1    42    43    1
     2    43    41    1
     3    41    34    1
     4    34    35   ar
     5    35    36   ar
     6    36    37   ar
     7    37    38    1
     8    37    39   ar
     9    39    33    1
    10    33    27    1
    11    27    28   am
    12    28    29    2
    13     1    28    1
    14     1     2    1
    15     2     3    1
    16     3     4    1
    17     4     5    1
    18     5     6    1
    19     6     8    1
    20     8     9   ar
    21     9    10   ar
    22    10    11   ar
    23    11    14    1
    24    14    15    1
    25    15    16    1
    26    16    17    1
    27    17    18    1
    28    18    19   ar
    29    19    20    1
    30    19    21   ar
    31    21    22   ar
    32    22    23    1
    33    22    24   ar
    34    24    25   ar
    35    25    26    1
    36    11    12   ar
    37    12    13   ar
    38    27    30    1
    39    30    31    1
    40    31    32    1
    41    39    40   ar
    42    40    34   ar
    43     6     1    1
    44    13     8   ar
    45    32    30    1
    46    25    18   ar
    47    43    44    1
    48     3     7    1
@<TRIPOS>MOLECULE
*****
 44 48 0 0 0
SMALL
GASTEIGER

@<TRIPOS>ATOM
      1 C          60.8270   89.9540   11.3251 C.3     1  UNL1        0.0964
      2 C          59.9230   91.0748   11.7454 C.3     1  UNL1        0.0780
      3 N          58.5129   90.7835   12.1657 N.3     1  UNL1       -0.2970
      4 C          58.0068   89.3716   12.1657 C.3     1  UNL1        0.0689
      5 C          58.9108   88.2508   11.7454 C.3     1  UNL1        0.0220
      6 C          60.3209   88.5420   11.3251 C.3     1  UNL1        0.0337
      7 H          57.9044   91.3145   11.5427 H       1  UNL1        0.1233
      8 C          61.2249   87.4212   10.9047 C.ar    1  UNL1       -0.0217
      9 C          61.4254   87.1255    9.4479 C.ar    1  UNL1       -0.0012
     10 C          62.3294   86.0048    9.0276 C.ar    1  UNL1        0.0366
     11 C          63.0328   85.1797   10.0641 C.ar    1  UNL1        0.1387
     12 C          62.8323   85.4753   11.5209 C.ar    1  UNL1        0.0366
     13 C          61.9283   86.5961   11.9412 C.ar    1  UNL1       -0.0012
     14 O          63.9368   84.0589    9.6438 O.3     1  UNL1       -0.4714
     15 C          64.6763   83.2635   10.6784 C.3     1  UNL1        0.2525
     16 C          63.9172   82.4249   11.6635 C.3     1  UNL1        0.2525
     17 O          64.3910   82.3221   13.0831 O.3     1  UNL1       -0.4697
     18 C          63.8842   83.2860   14.1146 C.ar    1  UNL1        0.1596
     19 C          64.7315   84.4510   14.5328 C.ar    1  UNL1        0.0921
     20 CL         66.0855   84.6520   13.9195 Cl      1  UNL1       -0.0791
     21 C          64.2247   85.4149   15.5643 C.ar    1  UNL1        0.0103
     22 C          62.8707   85.2138   16.1776 C.ar    1  UNL1       -0.0200
     23 C          62.3639   86.1777   17.2091 C.3     1  UNL1        0.0311
     24 C          62.0234   84.0487   15.7594 C.ar    1  UNL1        0.0103
     25 C          62.5301   83.0848   14.7279 C.ar    1  UNL1        0.0921
     26 CL         61.6829   81.9198   14.3097 Cl      1  UNL1       -0.0791
     27 N          63.3207   90.3511   11.9366 N.am    1  UNL1       -0.2770
     28 C          62.2372   90.2453   10.9047 C.2     1  UNL1        0.2270
     29 O          62.5638   90.4307    9.4525 O.2     1  UNL1       -0.2748
     30 C          62.9941   90.1657   13.3888 C.3     1  UNL1        0.0758
     31 C          62.2243   89.4635   14.4678 C.3     1  UNL1        0.0215
     32 C          63.1983   90.5468   14.8251 C.3     1  UNL1        0.0215
     33 C          64.7309   90.6424   11.5163 C.3     1  UNL1        0.1209
     34 C          65.7429   94.4348   10.9299 C.ar    1  UNL1       -0.0066
     35 C          66.4838   94.7301   12.2004 C.ar    1  UNL1       -0.0021
     36 C          66.6403   93.6629   13.2427 C.ar    1  UNL1        0.0109
     37 C          66.0560   92.3003   13.0147 C.ar    1  UNL1        0.0553
     38 CL         66.2125   91.2331   14.0570 Cl      1  UNL1       -0.0825
     39 C          65.3152   92.0050   11.7443 C.ar    1  UNL1        0.0080
     40 C          65.1586   93.0722   10.7019 C.ar    1  UNL1       -0.0047
     41 C          65.5864   95.5020    9.8876 C.3     1  UNL1        0.0957
     42 C          67.6536   94.7658    8.4966 C.3     1  UNL1        0.0861
     43 N          66.2806   95.3661    8.5649 N.3     1  UNL1       -0.2926
     44 H          65.6788   94.7925    7.9740 H       1  UNL1        0.1236
@<TRIPOS>BOND
     1    42    43    1
     2    43    41    1
     3    41    34    1
     4    34    35   ar
     5    35    36   ar
     6    36    37   ar
     7    37    38    1
     8    37    39   ar
     9    39    33    1
    10    33    27    1
    11    27    28   am
    12    28    29    2
    13     1    28    1
    14     1     2    1
    15     2     3    1
    16     3     4    1
    17     4     5    1
    18     5     6    1
    19     6     8    1
    20     8     9   ar
    21     9    10   ar
    22    10    11   ar
    23    11    14    1
    24    14    15    1
    25    15    16    1
    26    16    17    1
    27    17    18    1
    28    18    19   ar
    29    19    20    1
    30    19    21   ar
    31    21    22   ar
    32    22    23    1
    33    22    24   ar
    34    24    25   ar
    35    25    26    1
    36    11    12   ar
    37    12    13   ar
    38    27    30    1
    39    30    31    1
    40    31    32    1
    41    39    40   ar
    42    40    34   ar
    43     6     1    1
    44    13     8   ar
    45    32    30    1
    46    25    18   ar
    47    43    44    1
    48     3     7    1
@<TRIPOS>MOLECULE
*****
 44 48 0 0 0
SMALL
GASTEIGER

@<TRIPOS>ATOM
      1 C          62.7629   85.0395   12.9532 C.3     1  UNL1        0.0964
      2 C          62.4733   83.5780   13.1270 C.3     1  UNL1        0.0780
      3 N          62.7523   82.9092   14.4404 N.3     1  UNL1       -0.2970
      4 C          63.3208   83.7019   15.5798 C.3     1  UNL1        0.0689
      5 C          63.6104   85.1634   15.4059 C.3     1  UNL1        0.0220
      6 C          63.3314   85.8322   14.0926 C.3     1  UNL1        0.0337
      7 H          63.4093   82.1521   14.2516 H       1  UNL1        0.1233
      8 C          63.6210   87.2936   13.9187 C.ar    1  UNL1       -0.0217
      9 C          63.3449   87.9617   12.6045 C.ar    1  UNL1       -0.0012
     10 C          63.6345   89.4232   12.4306 C.ar    1  UNL1        0.0366
     11 C          64.2002   90.2166   13.5710 C.ar    1  UNL1        0.1387
     12 C          64.4762   89.5485   14.8852 C.ar    1  UNL1        0.0366
     13 C          64.1867   88.0870   15.0591 C.ar    1  UNL1       -0.0012
     14 O          64.4897   91.6781   13.3971 O.3     1  UNL1       -0.4714
     15 C          65.0775   92.1783   12.1110 C.3     1  UNL1        0.2525
     16 C          66.5644   92.1715   11.9131 C.3     1  UNL1        0.2525
     17 O          67.3055   93.4656   11.7514 O.3     1  UNL1       -0.4697
     18 C          67.0780   94.3132   10.5349 C.ar    1  UNL1        0.1596
     19 C          66.3772   95.6334   10.6610 C.ar    1  UNL1        0.0921
     20 CL         65.9038   96.1059   12.0036 Cl      1  UNL1       -0.0791
     21 C          66.1496   96.4810    9.4446 C.ar    1  UNL1        0.0103
     22 C          66.6230   96.0084    8.1020 C.ar    1  UNL1       -0.0200
     23 C          66.3954   96.8560    6.8855 C.3     1  UNL1        0.0311
     24 C          67.3238   94.6882    7.9758 C.ar    1  UNL1        0.0103
     25 C          67.5513   93.8406    9.1923 C.ar    1  UNL1        0.0921
     26 CL         68.2522   92.5204    9.0662 Cl      1  UNL1       -0.0791
     27 N          62.9847   85.0963   10.3652 N.am    1  UNL1       -0.2770
     28 C          62.4839   85.7083   11.6398 C.2     1  UNL1        0.2270
     29 O          61.7040   86.9890   11.6010 O.2     1  UNL1       -0.2748
     30 C          63.7646   83.8155   10.4039 C.3     1  UNL1        0.0758
     31 C          64.9789   83.0465   10.8328 C.3     1  UNL1        0.0215
     32 C          63.9010   82.3663   10.0421 C.3     1  UNL1        0.0215
     33 C          62.7058   85.7651    9.0518 C.3     1  UNL1        0.1209
     34 C          60.5872   89.0784    9.5847 C.ar    1  UNL1       -0.0066
     35 C          59.3907   88.7908    8.7270 C.ar    1  UNL1       -0.0021
     36 C          59.2992   87.4947    7.9776 C.ar    1  UNL1        0.0109
     37 C          60.4042   86.4861    8.0858 C.ar    1  UNL1        0.0553
     38 CL         60.3128   85.1900    7.3364 Cl      1  UNL1       -0.0825
     39 C          61.6007   86.7737    8.9435 C.ar    1  UNL1        0.0080
     40 C          61.6922   88.0698    9.6930 C.ar    1  UNL1       -0.0047
     41 C          60.6787   90.3745   10.3342 C.3     1  UNL1        0.0957
     42 C          59.4125   89.6099   12.4701 C.3     1  UNL1        0.0861
     43 N          59.7185   90.6655   11.4492 N.3     1  UNL1       -0.2926
     44 H          60.0917   91.4673   11.9575 H       1  UNL1        0.1236
@<TRIPOS>BOND
     1    42    43    1
     2    43    41    1
     3    41    34    1
     4    34    35   ar
     5    35    36   ar
     6    36    37   ar
     7    37    38    1
     8    37    39   ar
     9    39    33    1
    10    33    27    1
    11    27    28   am
    12    28    29    2
    13     1    28    1
    14     1     2    1
    15     2     3    1
    16     3     4    1
    17     4     5    1
    18     5     6    1
    19     6     8    1
    20     8     9   ar
    21     9    10   ar
    22    10    11   ar
    23    11    14    1
    24    14    15    1
    25    15    16    1
    26    16    17    1
    27    17    18    1
    28    18    19   ar
    29    19    20    1
    30    19    21   ar
    31    21    22   ar
    32    22    23    1
    33    22    24   ar
    34    24    25   ar
    35    25    26    1
    36    11    12   ar
    37    12    13   ar
    38    27    30    1
    39    30    31    1
    40    31    32    1
    41    39    40   ar
    42    40    34   ar
    43     6     1    1
    44    13     8   ar
    45    32    30    1
    46    25    18   ar
    47    43    44    1
    48     3     7    1
@<TRIPOS>MOLECULE
*****
 44 48 0 0 0
SMALL
GASTEIGER

@<TRIPOS>ATOM
      1 C          60.8812   89.8864   11.4667 C.3     1  UNL1        0.0964
      2 C          59.9835   91.0156   11.8777 C.3     1  UNL1        0.0780
      3 N          58.5331   90.7564   12.1588 N.3     1  UNL1       -0.2970
      4 C          57.9804   89.3681   12.0289 C.3     1  UNL1        0.0689
      5 C          58.8781   88.2389   11.6179 C.3     1  UNL1        0.0220
      6 C          60.3285   88.4980   11.3368 C.3     1  UNL1        0.0337
      7 H          57.9994   91.3467   11.5207 H       1  UNL1        0.1233
      8 C          61.2263   87.3688   10.9258 C.ar    1  UNL1       -0.0217
      9 C          61.8738   86.5075   11.9692 C.ar    1  UNL1       -0.0012
     10 C          62.7715   85.3783   11.5582 C.ar    1  UNL1        0.0366
     11 C          63.0218   85.1104   10.1037 C.ar    1  UNL1        0.1387
     12 C          62.3743   85.9717    9.0603 C.ar    1  UNL1        0.0366
     13 C          61.4765   87.1009    9.4713 C.ar    1  UNL1       -0.0012
     14 O          63.9195   83.9811    9.6927 O.3     1  UNL1       -0.4714
     15 C          64.6841   83.2148   10.7310 C.3     1  UNL1        0.2525
     16 C          63.9497   82.3982   11.7526 C.3     1  UNL1        0.2525
     17 O          64.4412   82.3505   13.1691 O.3     1  UNL1       -0.4697
     18 C          63.9159   83.3279   14.1784 C.ar    1  UNL1        0.1596
     19 C          64.7552   84.4989   14.5960 C.ar    1  UNL1        0.0921
     20 CL         66.1198   84.6924   14.0041 Cl      1  UNL1       -0.0791
     21 C          64.2299   85.4762   15.6053 C.ar    1  UNL1        0.0103
     22 C          62.8653   85.2826   16.1972 C.ar    1  UNL1       -0.0200
     23 C          62.3400   86.2600   17.2065 C.3     1  UNL1        0.0311
     24 C          62.0259   84.1116   15.7796 C.ar    1  UNL1        0.0103
     25 C          62.5512   83.1343   14.7703 C.ar    1  UNL1        0.0921
     26 CL         61.7119   81.9633   14.3527 Cl      1  UNL1       -0.0791
     27 N          63.3204   90.1761   12.3131 N.am    1  UNL1       -0.2770
     28 C          62.3317   90.1456   11.1855 C.2     1  UNL1        0.2270
     29 O          62.7934   90.3743    9.7768 O.2     1  UNL1       -0.2748
     30 C          62.8587   89.9474   13.7218 C.3     1  UNL1        0.0758
     31 C          61.8268   89.4387   14.6842 C.3     1  UNL1        0.0215
     32 C          63.0911   90.0599   15.1994 C.3     1  UNL1        0.0215
     33 C          64.7709   90.4353   12.0320 C.3     1  UNL1        0.1209
     34 C          66.6628   92.8124   14.5855 C.ar    1  UNL1       -0.0066
     35 C          66.7858   94.0648   13.7691 C.ar    1  UNL1       -0.0021
     36 C          66.2371   94.1073   12.3737 C.ar    1  UNL1        0.0109
     37 C          65.5655   92.8975   11.7946 C.ar    1  UNL1        0.0553
     38 CL         65.0169   92.9400   10.3993 Cl      1  UNL1       -0.0825
     39 C          65.4425   91.6451   12.6110 C.ar    1  UNL1        0.0080
     40 C          65.9912   91.6026   14.0065 C.ar    1  UNL1       -0.0047
     41 C          67.2114   92.7699   15.9809 C.3     1  UNL1        0.0957
     42 C          69.5378   93.9223   16.0821 C.3     1  UNL1        0.0861
     43 N          68.6928   92.6887   16.2022 N.3     1  UNL1       -0.2926
     44 H          68.8301   92.3285   17.1466 H       1  UNL1        0.1236
@<TRIPOS>BOND
     1    42    43    1
     2    43    41    1
     3    41    34    1
     4    34    35   ar
     5    35    36   ar
     6    36    37   ar
     7    37    38    1
     8    37    39   ar
     9    39    33    1
    10    33    27    1
    11    27    28   am
    12    28    29    2
    13     1    28    1
    14     1     2    1
    15     2     3    1
    16     3     4    1
    17     4     5    1
    18     5     6    1
    19     6     8    1
    20     8     9   ar
    21     9    10   ar
    22    10    11   ar
    23    11    14    1
    24    14    15    1
    25    15    16    1
    26    16    17    1
    27    17    18    1
    28    18    19   ar
    29    19    20    1
    30    19    21   ar
    31    21    22   ar
    32    22    23    1
    33    22    24   ar
    34    24    25   ar
    35    25    26    1
    36    11    12   ar
    37    12    13   ar
    38    27    30    1
    39    30    31    1
    40    31    32    1
    41    39    40   ar
    42    40    34   ar
    43     6     1    1
    44    13     8   ar
    45    32    30    1
    46    25    18   ar
    47    43    44    1
    48     3     7    1
