@<TRIPOS>MOLECULE
*****
 22 23 0 0 0
SMALL
GASTEIGER

@<TRIPOS>ATOM
      1 C          63.9645   89.0161   14.7360 C.ar    1  UNL1        0.1262
      2 C          63.2676   89.3625   16.0183 C.ar    1  UNL1        0.1430
      3 N          62.9078   88.2802   16.9925 N.ar    1  UNL1       -0.1405
      4 N          63.2450   86.8514   16.6844 N.ar    1  UNL1       -0.0915
      5 C          63.9419   86.5050   15.4021 C.ar    1  UNL1        0.3383
      6 N          64.3017   87.5873   14.4279 N.ar    1  UNL1       -0.1898
      7 C          65.8386   92.0946   13.0743 C.ar    1  UNL1        0.3382
      8 N          65.0438   92.2632   11.8134 N.ar    1  UNL1       -0.0915
      9 N          63.8893   91.3495   11.5267 N.ar    1  UNL1       -0.1405
     10 C          63.5295   90.2671   12.5009 C.ar    1  UNL1        0.1430
     11 C          64.3243   90.0985   13.7618 C.ar    1  UNL1        0.1262
     12 N          65.4788   91.0122   14.0485 N.ar    1  UNL1       -0.1898
     13 O          66.9931   93.0083   13.3611 O.3     1  UNL1       -0.4457
     14 C          67.0565   93.7509   14.6628 C.3     1  UNL1        0.2087
     15 C          68.3919   92.1728   16.2365 C.3     1  UNL1        0.0040
     16 C          68.2018   93.5193   15.6033 C.3     1  UNL1        0.0475
     17 O          64.2791   85.0762   15.0940 O.3     1  UNL1       -0.4442
     18 C          63.2086   84.0264   15.1396 C.3     1  UNL1        0.2260
     19 C          62.7031   83.4149   13.8667 C.3     1  UNL1        0.1202
     20 N          63.1489   83.9619   12.5431 N.3     1  UNL1       -0.2672
     21 C          64.2443   83.2784   11.7796 C.3     1  UNL1        0.0898
     22 C          62.4994   85.1925   11.9830 C.3     1  UNL1        0.0898
@<TRIPOS>BOND
     1    15    16    1
     2    16    14    1
     3    14    13    1
     4    13     7    1
     5     7     8   ar
     6     8     9   ar
     7     9    10   ar
     8    10    11   ar
     9    11     1    1
    10     1     2   ar
    11     2     3   ar
    12     3     4   ar
    13     4     5   ar
    14     5    17    1
    15    17    18    1
    16    18    19    1
    17    19    20    1
    18    20    21    1
    19    20    22    1
    20     5     6   ar
    21    11    12   ar
    22    12     7   ar
    23     6     1   ar
@<TRIPOS>MOLECULE
*****
 22 23 0 0 0
SMALL
GASTEIGER

@<TRIPOS>ATOM
      1 C          64.6400   90.7265   14.7353 C.ar    1  UNL1        0.1262
      2 C          63.8821   91.0036   15.9998 C.ar    1  UNL1        0.1430
      3 N          63.1624   89.8905   16.7021 N.ar    1  UNL1       -0.1405
      4 N          63.2006   88.5004   16.1398 N.ar    1  UNL1       -0.0915
      5 C          63.9585   88.2233   14.8753 C.ar    1  UNL1        0.3383
      6 N          64.6781   89.3364   14.1731 N.ar    1  UNL1       -0.1898
      7 C          65.9620   93.1003   11.8427 C.ar    1  UNL1        0.3382
      8 N          66.7990   94.0656   12.6285 N.ar    1  UNL1       -0.0915
      9 N          66.9163   93.9179   14.1166 N.ar    1  UNL1       -0.1405
     10 C          66.1967   92.8049   14.8189 C.ar    1  UNL1        0.1430
     11 C          65.3597   91.8396   14.0331 C.ar    1  UNL1        0.1262
     12 N          65.2423   91.9873   12.5450 N.ar    1  UNL1       -0.1898
     13 O          65.8446   93.2480   10.3546 O.3     1  UNL1       -0.4457
     14 C          66.7491   94.1935    9.6211 C.3     1  UNL1        0.2087
     15 C          68.5055   92.3085    9.2861 C.3     1  UNL1        0.0040
     16 C          67.9924   93.6794    8.9579 C.3     1  UNL1        0.0475
     17 O          63.9967   86.8332   14.3131 O.3     1  UNL1       -0.4442
     18 C          64.8512   85.7850   14.9619 C.3     1  UNL1        0.2260
     19 C          64.8674   84.3876   14.4169 C.3     1  UNL1        0.1202
     20 N          63.6598   83.5104   14.5660 N.3     1  UNL1       -0.2672
     21 C          63.5794   82.2117   13.8197 C.3     1  UNL1        0.0898
     22 C          62.5326   83.9319   15.4614 C.3     1  UNL1        0.0898
@<TRIPOS>BOND
     1    15    16    1
     2    16    14    1
     3    14    13    1
     4    13     7    1
     5     7     8   ar
     6     8     9   ar
     7     9    10   ar
     8    10    11   ar
     9    11     1    1
    10     1     2   ar
    11     2     3   ar
    12     3     4   ar
    13     4     5   ar
    14     5    17    1
    15    17    18    1
    16    18    19    1
    17    19    20    1
    18    20    21    1
    19    20    22    1
    20     5     6   ar
    21    11    12   ar
    22    12     7   ar
    23     6     1   ar
@<TRIPOS>MOLECULE
*****
 22 23 0 0 0
SMALL
GASTEIGER

@<TRIPOS>ATOM
      1 C          62.9722   90.0706   11.7134 C.ar    1  UNL1        0.1262
      2 C          62.3496   90.6218   10.4650 C.ar    1  UNL1        0.1430
      3 N          61.4377   89.7633    9.6394 N.ar    1  UNL1       -0.1405
      4 N          61.1484   88.3535   10.0624 N.ar    1  UNL1       -0.0915
      5 C          61.7710   87.8023   11.3108 C.ar    1  UNL1        0.3383
      6 N          62.6829   88.6609   12.1363 N.ar    1  UNL1       -0.1898
      7 C          65.7851   92.6933   12.6926 C.ar    1  UNL1        0.3382
      8 N          65.7077   92.6462   14.1898 N.ar    1  UNL1       -0.0915
      9 N          64.7185   91.7406   14.8616 N.ar    1  UNL1       -0.1405
     10 C          63.8067   90.8821   14.0361 C.ar    1  UNL1        0.1430
     11 C          63.8840   90.9292   12.5389 C.ar    1  UNL1        0.1262
     12 N          64.8733   91.8348   11.8671 N.ar    1  UNL1       -0.1898
     13 O          66.7744   93.5989   12.0208 O.3     1  UNL1       -0.4457
     14 C          66.5953   93.9661   10.5776 C.3     1  UNL1        0.2087
     15 C          68.2165   92.1132    9.7477 C.3     1  UNL1        0.0040
     16 C          67.5501   93.4419    9.5462 C.3     1  UNL1        0.0475
     17 O          61.4817   86.3926   11.7338 O.3     1  UNL1       -0.4442
     18 C          62.5669   85.3580   11.6876 C.3     1  UNL1        0.2260
     19 C          62.7300   84.3909   12.8225 C.3     1  UNL1        0.1202
     20 N          63.0895   84.8926   14.1896 N.3     1  UNL1       -0.2672
     21 C          62.4136   84.3203   15.4003 C.3     1  UNL1        0.0898
     22 C          64.1249   85.9665   14.3460 C.3     1  UNL1        0.0898
@<TRIPOS>BOND
     1    15    16    1
     2    16    14    1
     3    14    13    1
     4    13     7    1
     5     7     8   ar
     6     8     9   ar
     7     9    10   ar
     8    10    11   ar
     9    11     1    1
    10     1     2   ar
    11     2     3   ar
    12     3     4   ar
    13     4     5   ar
    14     5    17    1
    15    17    18    1
    16    18    19    1
    17    19    20    1
    18    20    21    1
    19    20    22    1
    20     5     6   ar
    21    11    12   ar
    22    12     7   ar
    23     6     1   ar
@<TRIPOS>MOLECULE
*****
 22 23 0 0 0
SMALL
GASTEIGER

@<TRIPOS>ATOM
      1 C          62.7397   84.0703   12.7202 C.ar    1  UNL1        0.1262
      2 C          63.2813   82.6870   12.9274 C.ar    1  UNL1        0.1430
      3 N          63.4149   82.1339   14.3153 N.ar    1  UNL1       -0.1405
      4 N          63.0068   82.9642   15.4960 N.ar    1  UNL1       -0.0915
      5 C          62.4652   84.3476   15.2887 C.ar    1  UNL1        0.3383
      6 N          62.3316   84.9006   13.9008 N.ar    1  UNL1       -0.1898
      7 C          61.5138   86.2977    9.6728 C.ar    1  UNL1        0.3382
      8 N          62.3390   85.7295    8.5565 N.ar    1  UNL1       -0.0915
      9 N          63.2976   84.6082    8.8280 N.ar    1  UNL1       -0.1405
     10 C          63.4312   84.0552   10.2158 C.ar    1  UNL1        0.1430
     11 C          62.6061   84.6234   11.3322 C.ar    1  UNL1        0.1262
     12 N          61.6474   85.7446   11.0607 N.ar    1  UNL1       -0.1898
     13 O          60.5552   87.4189    9.4013 O.3     1  UNL1       -0.4457
     14 C          60.8896   88.8142    9.8387 C.3     1  UNL1        0.2087
     15 C          62.6315   89.4519   11.6578 C.3     1  UNL1        0.0040
     16 C          62.2968   89.1622   10.2246 C.3     1  UNL1        0.0475
     17 O          62.0571   85.1780   16.4694 O.3     1  UNL1       -0.4442
     18 C          63.0544   86.0825   17.1309 C.3     1  UNL1        0.2260
     19 C          62.8955   87.5710   17.0357 C.3     1  UNL1        0.1202
     20 N          63.5216   88.3209   15.8975 N.3     1  UNL1       -0.2672
     21 C          64.3108   87.5828   14.8570 C.3     1  UNL1        0.0898
     22 C          63.3586   89.8087   15.7998 C.3     1  UNL1        0.0898
@<TRIPOS>BOND
     1    15    16    1
     2    16    14    1
     3    14    13    1
     4    13     7    1
     5     7     8   ar
     6     8     9   ar
     7     9    10   ar
     8    10    11   ar
     9    11     1    1
    10     1     2   ar
    11     2     3   ar
    12     3     4   ar
    13     4     5   ar
    14     5    17    1
    15    17    18    1
    16    18    19    1
    17    19    20    1
    18    20    21    1
    19    20    22    1
    20     5     6   ar
    21    11    12   ar
    22    12     7   ar
    23     6     1   ar
@<TRIPOS>MOLECULE
*****
 22 23 0 0 0
SMALL
GASTEIGER

@<TRIPOS>ATOM
      1 C          64.2256   89.8424   14.7359 C.ar    1  UNL1        0.1262
      2 C          63.5237   90.2688   15.9910 C.ar    1  UNL1        0.1430
      3 N          63.8514   91.5897   16.6218 N.ar    1  UNL1       -0.1405
      4 N          64.8811   92.4841   15.9975 N.ar    1  UNL1       -0.0915
      5 C          65.5830   92.0576   14.7423 C.ar    1  UNL1        0.3383
      6 N          65.2553   90.7368   14.1115 N.ar    1  UNL1       -0.1898
      7 C          63.8537   85.9260   14.2125 C.ar    1  UNL1        0.3382
      8 N          63.2426   85.8797   12.8434 N.ar    1  UNL1       -0.0915
      9 N          62.9591   87.1543   12.1052 N.ar    1  UNL1       -0.1405
     10 C          63.2868   88.4752   12.7359 C.ar    1  UNL1        0.1430
     11 C          63.8979   88.5214   14.1050 C.ar    1  UNL1        0.1262
     12 N          64.1814   87.2468   14.8433 N.ar    1  UNL1       -0.1898
     13 O          64.1372   84.6514   14.9508 O.3     1  UNL1       -0.4457
     14 C          63.0354   83.6619   15.1892 C.3     1  UNL1        0.2087
     15 C          62.4937   82.3512   13.0124 C.3     1  UNL1        0.0040
     16 C          63.0057   82.3732   14.4222 C.3     1  UNL1        0.0475
     17 O          66.6127   92.9520   14.1179 O.3     1  UNL1       -0.4442
     18 C          66.4068   93.4763   12.7276 C.3     1  UNL1        0.2260
     19 C          66.9946   92.7467   11.5563 C.3     1  UNL1        0.1202
     20 N          67.4376   93.5095   10.3431 N.3     1  UNL1       -0.2672
     21 C          67.0599   94.9525   10.1851 C.3     1  UNL1        0.0898
     22 C          68.2583   92.8292    9.2878 C.3     1  UNL1        0.0898
@<TRIPOS>BOND
     1    15    16    1
     2    16    14    1
     3    14    13    1
     4    13     7    1
     5     7     8   ar
     6     8     9   ar
     7     9    10   ar
     8    10    11   ar
     9    11     1    1
    10     1     2   ar
    11     2     3   ar
    12     3     4   ar
    13     4     5   ar
    14     5    17    1
    15    17    18    1
    16    18    19    1
    17    19    20    1
    18    20    21    1
    19    20    22    1
    20     5     6   ar
    21    11    12   ar
    22    12     7   ar
    23     6     1   ar
@<TRIPOS>MOLECULE
*****
 22 23 0 0 0
SMALL
GASTEIGER

@<TRIPOS>ATOM
      1 C          64.2837   89.9415   14.5997 C.ar    1  UNL1        0.1262
      2 C          63.6112   90.3799   15.8668 C.ar    1  UNL1        0.1430
      3 N          63.9873   91.6855   16.5026 N.ar    1  UNL1       -0.1405
      4 N          65.0359   92.5525   15.8712 N.ar    1  UNL1       -0.0915
      5 C          65.7085   92.1140   14.6041 C.ar    1  UNL1        0.3383
      6 N          65.3323   90.8085   13.9684 N.ar    1  UNL1       -0.1898
      7 C          62.8417   87.3161   11.9962 C.ar    1  UNL1        0.3382
      8 N          63.1553   86.0250   12.6924 N.ar    1  UNL1       -0.0915
      9 N          63.8450   86.0394   14.0243 N.ar    1  UNL1       -0.1405
     10 C          64.2211   87.3448   14.6601 C.ar    1  UNL1        0.1430
     11 C          63.9076   88.6359   13.9640 C.ar    1  UNL1        0.1262
     12 N          63.2179   88.6216   12.6320 N.ar    1  UNL1       -0.1898
     13 O          62.1520   87.3017   10.6643 O.3     1  UNL1       -0.4457
     14 C          61.7452   88.5919   10.0164 C.3     1  UNL1        0.2087
     15 C          60.2189   90.3629   11.1496 C.3     1  UNL1        0.0040
     16 C          60.3799   89.1598   10.2682 C.3     1  UNL1        0.0475
     17 O          66.7571   92.9811   13.9728 O.3     1  UNL1       -0.4442
     18 C          66.4571   93.7137   12.6987 C.3     1  UNL1        0.2260
     19 C          66.5807   93.0081   11.3808 C.3     1  UNL1        0.1202
     20 N          67.3776   93.6267   10.2707 N.3     1  UNL1       -0.2672
     21 C          68.3544   92.7940    9.4945 C.3     1  UNL1        0.0898
     22 C          67.1976   95.0779    9.9368 C.3     1  UNL1        0.0898
@<TRIPOS>BOND
     1    15    16    1
     2    16    14    1
     3    14    13    1
     4    13     7    1
     5     7     8   ar
     6     8     9   ar
     7     9    10   ar
     8    10    11   ar
     9    11     1    1
    10     1     2   ar
    11     2     3   ar
    12     3     4   ar
    13     4     5   ar
    14     5    17    1
    15    17    18    1
    16    18    19    1
    17    19    20    1
    18    20    21    1
    19    20    22    1
    20     5     6   ar
    21    11    12   ar
    22    12     7   ar
    23     6     1   ar
@<TRIPOS>MOLECULE
*****
 22 23 0 0 0
SMALL
GASTEIGER

@<TRIPOS>ATOM
      1 C          63.4521   90.3771   12.8280 C.ar    1  UNL1        0.1262
      2 C          63.1136   90.2319   14.2820 C.ar    1  UNL1        0.1430
      3 N          63.8688   91.0207   15.3104 N.ar    1  UNL1       -0.1405
      4 N          64.9626   91.9547   14.8846 N.ar    1  UNL1       -0.0915
      5 C          65.3012   92.0998   13.4305 C.ar    1  UNL1        0.3383
      6 N          64.5460   91.3110   12.4022 N.ar    1  UNL1       -0.1898
      7 C          61.8635   87.3055   10.8808 C.ar    1  UNL1        0.3382
      8 N          61.1865   88.0106    9.7431 N.ar    1  UNL1       -0.0915
      9 N          61.2647   89.5046    9.6337 N.ar    1  UNL1       -0.1405
     10 C          62.0199   90.2934   10.6620 C.ar    1  UNL1        0.1430
     11 C          62.6969   89.5882   11.7997 C.ar    1  UNL1        0.1262
     12 N          62.6187   88.0943   11.9091 N.ar    1  UNL1       -0.1898
     13 O          61.7854   85.8115   10.9902 O.3     1  UNL1       -0.4457
     14 C          62.6746   85.0825   11.9533 C.3     1  UNL1        0.2087
     15 C          63.8844   83.3296   10.4654 C.3     1  UNL1        0.0040
     16 C          63.0701   83.6615   11.6806 C.3     1  UNL1        0.0475
     17 O          66.3950   93.0338   13.0047 O.3     1  UNL1       -0.4442
     18 C          66.2341   93.8611   11.7638 C.3     1  UNL1        0.2260
     19 C          66.4789   93.2481   10.4169 C.3     1  UNL1        0.1202
     20 N          67.6895   93.6407    9.6230 N.3     1  UNL1       -0.2672
     21 C          67.8049   95.0298    9.0688 C.3     1  UNL1        0.0898
     22 C          68.7847   92.6442    9.3833 C.3     1  UNL1        0.0898
@<TRIPOS>BOND
     1    15    16    1
     2    16    14    1
     3    14    13    1
     4    13     7    1
     5     7     8   ar
     6     8     9   ar
     7     9    10   ar
     8    10    11   ar
     9    11     1    1
    10     1     2   ar
    11     2     3   ar
    12     3     4   ar
    13     4     5   ar
    14     5    17    1
    15    17    18    1
    16    18    19    1
    17    19    20    1
    18    20    21    1
    19    20    22    1
    20     5     6   ar
    21    11    12   ar
    22    12     7   ar
    23     6     1   ar
@<TRIPOS>MOLECULE
*****
 22 23 0 0 0
SMALL
GASTEIGER

@<TRIPOS>ATOM
      1 C          63.9363   88.4292   14.7672 C.ar    1  UNL1        0.1262
      2 C          63.3981   88.7376   16.1329 C.ar    1  UNL1        0.1430
      3 N          63.2854   90.1616   16.5907 N.ar    1  UNL1       -0.1405
      4 N          63.7110   91.2772   15.6828 N.ar    1  UNL1       -0.0915
      5 C          64.2492   90.9687   14.3170 C.ar    1  UNL1        0.3383
      6 N          64.3618   89.5448   13.8592 N.ar    1  UNL1       -0.1898
      7 C          63.4301   85.1284   12.6227 C.ar    1  UNL1        0.3382
      8 N          64.2741   84.1573   13.3937 N.ar    1  UNL1       -0.0915
      9 N          65.0055   84.6101   14.6225 N.ar    1  UNL1       -0.1405
     10 C          64.8929   86.0340   15.0804 C.ar    1  UNL1        0.1430
     11 C          64.0489   87.0052   14.3094 C.ar    1  UNL1        0.1262
     12 N          63.3175   86.5524   13.0805 N.ar    1  UNL1       -0.1898
     13 O          62.6987   84.6756   11.3938 O.3     1  UNL1       -0.4457
     14 C          61.7101   85.5881   10.7305 C.3     1  UNL1        0.2087
     15 C          60.7370   86.2780    8.4224 C.3     1  UNL1        0.0040
     16 C          61.9190   86.0125    9.3070 C.3     1  UNL1        0.0475
     17 O          64.6748   92.0843   13.4090 O.3     1  UNL1       -0.4442
     18 C          66.1052   92.5360   13.3954 C.3     1  UNL1        0.2260
     19 C          66.4456   93.9361   12.9785 C.3     1  UNL1        0.1202
     20 N          66.5176   94.2885   11.5223 N.3     1  UNL1       -0.2672
     21 C          66.2561   95.6970   11.0776 C.3     1  UNL1        0.0898
     22 C          66.8512   93.2323   10.5108 C.3     1  UNL1        0.0898
@<TRIPOS>BOND
     1    15    16    1
     2    16    14    1
     3    14    13    1
     4    13     7    1
     5     7     8   ar
     6     8     9   ar
     7     9    10   ar
     8    10    11   ar
     9    11     1    1
    10     1     2   ar
    11     2     3   ar
    12     3     4   ar
    13     4     5   ar
    14     5    17    1
    15    17    18    1
    16    18    19    1
    17    19    20    1
    18    20    21    1
    19    20    22    1
    20     5     6   ar
    21    11    12   ar
    22    12     7   ar
    23     6     1   ar
@<TRIPOS>MOLECULE
*****
 22 23 0 0 0
SMALL
GASTEIGER

@<TRIPOS>ATOM
      1 C          62.8188   84.4798   10.7710 C.ar    1  UNL1        0.1262
      2 C          63.7411   83.8122    9.7945 C.ar    1  UNL1        0.1430
      3 N          64.6564   82.7169   10.2557 N.ar    1  UNL1       -0.1405
      4 N          64.6493   82.2893   11.6935 N.ar    1  UNL1       -0.0915
      5 C          63.7270   82.9570   12.6700 C.ar    1  UNL1        0.3383
      6 N          62.8117   84.0522   12.2088 N.ar    1  UNL1       -0.1898
      7 C          60.4361   87.6529   10.8385 C.ar    1  UNL1        0.3382
      8 N          60.0731   87.7656    9.3875 N.ar    1  UNL1       -0.0915
      9 N          60.6252   86.7831    8.3977 N.ar    1  UNL1       -0.1405
     10 C          61.5405   85.6879    8.8588 C.ar    1  UNL1        0.1430
     11 C          61.9035   85.5751   10.3098 C.ar    1  UNL1        0.1262
     12 N          61.3514   86.5576   11.2997 N.ar    1  UNL1       -0.1898
     13 O          59.8840   88.6354   11.8284 O.3     1  UNL1       -0.4457
     14 C          60.3587   90.0582   11.8175 C.3     1  UNL1        0.2087
     15 C          62.4467   90.6959   10.4090 C.3     1  UNL1        0.0040
     16 C          61.8259   90.3587   11.7322 C.3     1  UNL1        0.0475
     17 O          63.7199   82.5294   14.1077 O.3     1  UNL1       -0.4442
     18 C          64.0384   83.5214   15.1868 C.3     1  UNL1        0.2260
     19 C          63.0069   84.5240   15.6121 C.3     1  UNL1        0.1202
     20 N          63.4201   85.9229   15.9618 N.3     1  UNL1       -0.2672
     21 C          62.9220   86.5582   17.2260 C.3     1  UNL1        0.0898
     22 C          64.3314   86.6865   15.0472 C.3     1  UNL1        0.0898
@<TRIPOS>BOND
     1    15    16    1
     2    16    14    1
     3    14    13    1
     4    13     7    1
     5     7     8   ar
     6     8     9   ar
     7     9    10   ar
     8    10    11   ar
     9    11     1    1
    10     1     2   ar
    11     2     3   ar
    12     3     4   ar
    13     4     5   ar
    14     5    17    1
    15    17    18    1
    16    18    19    1
    17    19    20    1
    18    20    21    1
    19    20    22    1
    20     5     6   ar
    21    11    12   ar
    22    12     7   ar
    23     6     1   ar
