@<TRIPOS>MOLECULE
*****
 32 35 0 0 0
SMALL
GASTEIGER

@<TRIPOS>ATOM
      1 C          64.7080   91.2107   14.4644 C.3     1  UNL1        0.2129
      2 C          64.2275   89.9177   13.8751 C.ar    1  UNL1        0.1110
      3 N          63.4823   89.7607   12.5829 N.ar    1  UNL1       -0.2412
      4 C          63.2021   88.3006   12.3838 C.ar    1  UNL1        0.0875
      5 C          62.4999   87.5536   11.2889 C.ar    1  UNL1        0.0196
      6 C          62.3699   86.0611   11.3632 C.ar    1  UNL1        0.0016
      7 C          62.9419   85.3157   12.5324 C.ar    1  UNL1        0.0021
      8 C          63.6441   86.0627   13.6273 C.ar    1  UNL1        0.0081
      9 C          63.7741   87.5552   13.5530 C.ar    1  UNL1        0.0482
     10 S          64.4079   88.5546   14.4747 S.2     1  UNL1       -0.0693
     11 C          62.8118   83.8231   12.6067 C.ar    1  UNL1        0.0194
     12 C          63.1795   82.9784   11.4230 C.ar    1  UNL1        0.0055
     13 C          63.0494   81.4859   11.4973 C.ar    1  UNL1        0.0497
     14 C          62.5516   80.8381   12.7553 C.ar    1  UNL1        0.2223
     15 F          62.4215   79.3457   12.8296 F       1  UNL1       -0.1832
     16 N          62.1840   81.6829   13.9391 N.ar    1  UNL1       -0.2165
     17 C          62.3141   83.1754   13.8647 C.ar    1  UNL1        0.1012
     18 C          65.7222   92.0379   13.7315 C.2     1  UNL1        0.2430
     19 O          66.1541   93.3620   14.2886 O.2     1  UNL1       -0.2735
     20 N          66.3046   91.5410   12.4416 N.am    1  UNL1       -0.2955
     21 H          66.0212   90.6720   12.0759 H       1  UNL1        0.1499
     22 C          67.3189   92.3682   11.7087 C.3     1  UNL1        0.1757
     23 C          66.8692   93.4621   10.7861 C.2     1  UNL1        0.2426
     24 O          65.4122   93.8030   10.6810 O.2     1  UNL1       -0.2733
     25 N          67.8765   94.2151    9.9686 N.am    1  UNL1       -0.3000
     26 H          68.8327   93.9914   10.0376 H       1  UNL1        0.1496
     27 C          67.4268   95.3090    9.0460 C.3     1  UNL1        0.1310
     28 C          67.0722   95.3904    7.5908 C.3     1  UNL1        0.1642
     29 O          66.7909   96.8560    7.7412 O.3     1  UNL1       -0.3501
     30 C          67.1456   96.7748    9.1964 C.3     1  UNL1        0.1642
     31 N          63.6406   92.1425   17.1087 N.1     1  UNL1       -0.1950
     32 C          64.1743   91.6766   15.7865 C.1     1  UNL1        0.0881
@<TRIPOS>BOND
     1    31    32    3
     2    32     1    1
     3     1    18    1
     4    18    19    2
     5    18    20   am
     6    20    22    1
     7    22    23    1
     8    23    24    2
     9    23    25   am
    10    25    27    1
    11    27    28    1
    12    28    29    1
    13    29    30    1
    14     1     2    1
    15     2     3   ar
    16     3     4   ar
    17     4     5   ar
    18     5     6   ar
    19     6     7   ar
    20     7    11    1
    21    11    12   ar
    22    12    13   ar
    23    13    14   ar
    24    14    15    1
    25    14    16   ar
    26    16    17   ar
    27     7     8   ar
    28     8     9   ar
    29     9    10   ar
    30    30    27    1
    31    10     2   ar
    32     9     4   ar
    33    17    11   ar
    34    20    21    1
    35    25    26    1
@<TRIPOS>MOLECULE
*****
 32 35 0 0 0
SMALL
GASTEIGER

@<TRIPOS>ATOM
      1 C          61.9947   89.9859   11.3119 C.3     1  UNL1        0.2129
      2 C          62.3408   88.5619   11.6315 C.ar    1  UNL1        0.1110
      3 N          63.1786   88.0957   12.7851 N.ar    1  UNL1       -0.2412
      4 C          63.2655   86.5996   12.7203 C.ar    1  UNL1        0.0875
      5 C          63.9573   85.5957   13.5940 C.ar    1  UNL1        0.0196
      6 C          63.8651   84.1331   13.2739 C.ar    1  UNL1        0.0016
      7 C          63.0811   83.6746   12.0801 C.ar    1  UNL1        0.0021
      8 C          62.3893   84.6786   11.2064 C.ar    1  UNL1        0.0081
      9 C          62.4815   86.1411   11.5265 C.ar    1  UNL1        0.0482
     10 S          61.9100   87.3538   10.8536 S.2     1  UNL1       -0.0693
     11 C          62.9889   82.2120   11.7601 C.ar    1  UNL1        0.0194
     12 C          63.2450   81.7326   10.3620 C.ar    1  UNL1        0.0055
     13 C          63.1528   80.2700   10.0420 C.ar    1  UNL1        0.0497
     14 C          62.8045   79.2869   11.1200 C.ar    1  UNL1        0.2223
     15 F          62.7123   77.8243   10.8001 F       1  UNL1       -0.1832
     16 N          62.5484   79.7664   12.5181 N.ar    1  UNL1       -0.2165
     17 C          62.6406   81.2289   12.8381 C.ar    1  UNL1        0.1012
     18 C          63.0841   90.9767   11.0265 C.2     1  UNL1        0.2430
     19 O          63.1769   91.6210    9.6751 O.2     1  UNL1       -0.2735
     20 N          64.0808   91.3232   12.0926 N.am    1  UNL1       -0.2955
     21 H          64.0200   90.9003   12.9796 H       1  UNL1        0.1499
     22 C          65.1703   92.3140   11.8072 C.3     1  UNL1        0.1757
     23 C          66.0657   92.7840   12.9151 C.2     1  UNL1        0.2426
     24 O          66.1221   94.2412   13.2667 O.2     1  UNL1       -0.2733
     25 N          66.9046   91.7970   13.6713 N.am    1  UNL1       -0.3000
     26 H          66.8676   90.8407   13.4405 H       1  UNL1        0.1496
     27 C          67.8000   92.2670   14.7792 C.3     1  UNL1        0.1310
     28 C          69.2053   92.7853   14.8597 C.3     1  UNL1        0.1642
     29 O          69.0662   92.9317   16.3459 O.3     1  UNL1       -0.3501
     30 C          67.6609   92.4135   16.2656 C.3     1  UNL1        0.1642
     31 N          59.1234   90.8526   11.2432 N.1     1  UNL1       -0.1950
     32 C          60.5591   90.4192   11.2775 C.1     1  UNL1        0.0881
@<TRIPOS>BOND
     1    31    32    3
     2    32     1    1
     3     1    18    1
     4    18    19    2
     5    18    20   am
     6    20    22    1
     7    22    23    1
     8    23    24    2
     9    23    25   am
    10    25    27    1
    11    27    28    1
    12    28    29    1
    13    29    30    1
    14     1     2    1
    15     2     3   ar
    16     3     4   ar
    17     4     5   ar
    18     5     6   ar
    19     6     7   ar
    20     7    11    1
    21    11    12   ar
    22    12    13   ar
    23    13    14   ar
    24    14    15    1
    25    14    16   ar
    26    16    17   ar
    27     7     8   ar
    28     8     9   ar
    29     9    10   ar
    30    30    27    1
    31    10     2   ar
    32     9     4   ar
    33    17    11   ar
    34    20    21    1
    35    25    26    1
@<TRIPOS>MOLECULE
*****
 32 35 0 0 0
SMALL
GASTEIGER

@<TRIPOS>ATOM
      1 C          62.4706   89.7964   11.9267 C.3     1  UNL1        0.2129
      2 C          62.7451   88.3377   12.1430 C.ar    1  UNL1        0.1110
      3 N          63.5529   87.7489   13.2615 N.ar    1  UNL1       -0.2412
      4 C          63.5671   86.2590   13.0885 C.ar    1  UNL1        0.0875
      5 C          64.2043   85.1617   13.8885 C.ar    1  UNL1        0.0196
      6 C          64.0426   83.7325   13.4632 C.ar    1  UNL1        0.0016
      7 C          63.2437   83.4004   12.2378 C.ar    1  UNL1        0.0021
      8 C          62.6065   84.4976   11.4379 C.ar    1  UNL1        0.0081
      9 C          62.7682   85.9269   11.8632 C.ar    1  UNL1        0.0482
     10 S          62.2602   87.2116   11.2789 S.2     1  UNL1       -0.0693
     11 C          63.0820   81.9710   11.8125 C.ar    1  UNL1        0.0194
     12 C          63.2908   81.5873   10.3775 C.ar    1  UNL1        0.0055
     13 C          63.1291   80.1580    9.9522 C.ar    1  UNL1        0.0497
     14 C          62.7586   79.1124   10.9619 C.ar    1  UNL1        0.2223
     15 F          62.5969   77.6831   10.5366 F       1  UNL1       -0.1832
     16 N          62.5498   79.4961   12.3969 N.ar    1  UNL1       -0.2165
     17 C          62.7115   80.9254   12.8222 C.ar    1  UNL1        0.1012
     18 C          63.4316   90.8252   12.4443 C.2     1  UNL1        0.2430
     19 O          63.5401   91.0753   13.9194 O.2     1  UNL1       -0.2735
     20 N          64.2840   91.6041   11.4869 N.am    1  UNL1       -0.2955
     21 H          64.2128   91.4401   10.5188 H       1  UNL1        0.1499
     22 C          65.2450   92.6330   12.0046 C.3     1  UNL1        0.1757
     23 C          66.0763   93.4325   11.0455 C.2     1  UNL1        0.2426
     24 O          67.4062   92.9096   10.5893 O.2     1  UNL1       -0.2733
     25 N          65.5778   94.7548   10.5427 N.am    1  UNL1       -0.3000
     26 H          64.7050   95.0980   10.8422 H       1  UNL1        0.1496
     27 C          66.4091   95.5543    9.5837 C.3     1  UNL1        0.1310
     28 C          67.1565   96.8529    9.6550 C.3     1  UNL1        0.1642
     29 O          67.5847   96.6850    8.2274 O.3     1  UNL1       -0.3501
     30 C          66.8373   95.3864    8.1559 C.3     1  UNL1        0.1642
     31 N          59.9995   90.6562   10.4589 N.1     1  UNL1       -0.1950
     32 C          61.2350   90.2263   11.1929 C.1     1  UNL1        0.0881
@<TRIPOS>BOND
     1    31    32    3
     2    32     1    1
     3     1    18    1
     4    18    19    2
     5    18    20   am
     6    20    22    1
     7    22    23    1
     8    23    24    2
     9    23    25   am
    10    25    27    1
    11    27    28    1
    12    28    29    1
    13    29    30    1
    14     1     2    1
    15     2     3   ar
    16     3     4   ar
    17     4     5   ar
    18     5     6   ar
    19     6     7   ar
    20     7    11    1
    21    11    12   ar
    22    12    13   ar
    23    13    14   ar
    24    14    15    1
    25    14    16   ar
    26    16    17   ar
    27     7     8   ar
    28     8     9   ar
    29     9    10   ar
    30    30    27    1
    31    10     2   ar
    32     9     4   ar
    33    17    11   ar
    34    20    21    1
    35    25    26    1
@<TRIPOS>MOLECULE
*****
 32 35 0 0 0
SMALL
GASTEIGER

@<TRIPOS>ATOM
      1 C          63.6610   90.0313   15.1172 C.3     1  UNL1        0.2129
      2 C          63.0978   89.5644   13.8077 C.ar    1  UNL1        0.1110
      3 N          62.0709   90.2826   12.9832 N.ar    1  UNL1       -0.2412
      4 C          61.8011   89.4594   11.7587 C.ar    1  UNL1        0.0875
      5 C          60.8833   89.6686   10.5909 C.ar    1  UNL1        0.0196
      6 C          60.8256   88.6507    9.4906 C.ar    1  UNL1        0.0016
      7 C          61.6857   87.4237    9.5582 C.ar    1  UNL1        0.0021
      8 C          62.6035   87.2145   10.7260 C.ar    1  UNL1        0.0081
      9 C          62.6612   88.2324   11.8263 C.ar    1  UNL1        0.0482
     10 S          63.4626   88.2973   13.0926 S.2     1  UNL1       -0.0693
     11 C          61.6280   86.4058    8.4579 C.ar    1  UNL1        0.0194
     12 C          62.8539   85.6198    8.0982 C.ar    1  UNL1        0.0055
     13 C          62.7962   84.6019    6.9979 C.ar    1  UNL1        0.0497
     14 C          61.5126   84.3701    6.2573 C.ar    1  UNL1        0.2223
     15 F          61.4548   83.3522    5.1570 F       1  UNL1       -0.1832
     16 N          60.2866   85.1561    6.6170 N.ar    1  UNL1       -0.2165
     17 C          60.3444   86.1739    7.7173 C.ar    1  UNL1        0.1012
     18 C          64.5043   91.2705   15.1717 C.2     1  UNL1        0.2430
     19 O          64.5077   92.1217   16.4069 O.2     1  UNL1       -0.2735
     20 N          65.3443   91.6587   13.9911 N.am    1  UNL1       -0.2955
     21 H          65.3421   91.1001   13.1805 H       1  UNL1        0.1499
     22 C          66.1876   92.8980   14.0457 C.3     1  UNL1        0.1757
     23 C          66.4623   93.6741   12.7918 C.2     1  UNL1        0.2426
     24 O          66.3569   95.1704   12.7977 O.2     1  UNL1       -0.2733
     25 N          66.8425   92.9539   11.5322 N.am    1  UNL1       -0.3000
     26 H          66.9117   91.9719   11.5284 H       1  UNL1        0.1496
     27 C          67.1172   93.7300   10.2783 C.3     1  UNL1        0.1310
     28 C          68.2294   93.7611    9.2723 C.3     1  UNL1        0.1642
     29 O          67.5056   94.8275    8.5050 O.3     1  UNL1       -0.3501
     30 C          66.3934   94.7965    9.5109 C.3     1  UNL1        0.1642
     31 N          63.1007   88.4865   17.6271 N.1     1  UNL1       -0.1950
     32 C          63.3809   89.2590   16.3721 C.1     1  UNL1        0.0881
@<TRIPOS>BOND
     1    31    32    3
     2    32     1    1
     3     1    18    1
     4    18    19    2
     5    18    20   am
     6    20    22    1
     7    22    23    1
     8    23    24    2
     9    23    25   am
    10    25    27    1
    11    27    28    1
    12    28    29    1
    13    29    30    1
    14     1     2    1
    15     2     3   ar
    16     3     4   ar
    17     4     5   ar
    18     5     6   ar
    19     6     7   ar
    20     7    11    1
    21    11    12   ar
    22    12    13   ar
    23    13    14   ar
    24    14    15    1
    25    14    16   ar
    26    16    17   ar
    27     7     8   ar
    28     8     9   ar
    29     9    10   ar
    30    30    27    1
    31    10     2   ar
    32     9     4   ar
    33    17    11   ar
    34    20    21    1
    35    25    26    1
@<TRIPOS>MOLECULE
*****
 32 35 0 0 0
SMALL
GASTEIGER

@<TRIPOS>ATOM
      1 C          64.0724   90.2070   14.3379 C.3     1  UNL1        0.2129
      2 C          63.7077   88.9476   13.6091 C.ar    1  UNL1        0.1110
      3 N          62.9982   88.8663   12.2900 N.ar    1  UNL1       -0.2412
      4 C          62.8403   87.4169   11.9372 C.ar    1  UNL1        0.0875
      5 C          62.2185   86.7336   10.7555 C.ar    1  UNL1        0.0196
      6 C          62.2085   85.2358   10.6750 C.ar    1  UNL1        0.0016
      7 C          62.8205   84.4214   11.7760 C.ar    1  UNL1        0.0021
      8 C          63.4423   85.1048   12.9576 C.ar    1  UNL1        0.0081
      9 C          63.4523   86.6025   13.0382 C.ar    1  UNL1        0.0482
     10 S          63.9883   87.5486   14.0715 S.2     1  UNL1       -0.0693
     11 C          62.8105   82.9236   11.6954 C.ar    1  UNL1        0.0194
     12 C          62.4031   82.1109   12.8885 C.ar    1  UNL1        0.0055
     13 C          62.3931   80.6131   12.8079 C.ar    1  UNL1        0.0497
     14 C          62.7906   79.9279   11.5340 C.ar    1  UNL1        0.2223
     15 F          62.7806   78.4302   11.4534 F       1  UNL1       -0.1832
     16 N          63.1980   80.7406   10.3409 N.ar    1  UNL1       -0.2165
     17 C          63.2080   82.2384   10.4215 C.ar    1  UNL1        0.1012
     18 C          64.8782   91.2668   13.6469 C.2     1  UNL1        0.2430
     19 O          64.6525   91.5510   12.1914 O.2     1  UNL1       -0.2735
     20 N          65.9098   92.0424   14.4113 N.am    1  UNL1       -0.2955
     21 H          66.0579   91.8559   15.3666 H       1  UNL1        0.1499
     22 C          66.7156   93.1022   13.7202 C.3     1  UNL1        0.1757
     23 C          67.4171   92.7901   12.4317 C.2     1  UNL1        0.2426
     24 O          68.5822   91.8453   12.4217 O.2     1  UNL1       -0.2733
     25 N          66.9536   93.4227   11.1530 N.am    1  UNL1       -0.3000
     26 H          66.1889   94.0428   11.1596 H       1  UNL1        0.1496
     27 C          67.6551   93.1106    9.8645 C.3     1  UNL1        0.1310
     28 C          68.2847   91.8863    9.2690 C.3     1  UNL1        0.1642
     29 O          68.6472   92.6693    8.0422 O.3     1  UNL1       -0.3501
     30 C          68.0177   93.8937    8.6375 C.3     1  UNL1        0.1642
     31 N          63.1904   90.6059   17.1774 N.1     1  UNL1       -0.1950
     32 C          63.6315   90.4065   15.7576 C.1     1  UNL1        0.0881
@<TRIPOS>BOND
     1    31    32    3
     2    32     1    1
     3     1    18    1
     4    18    19    2
     5    18    20   am
     6    20    22    1
     7    22    23    1
     8    23    24    2
     9    23    25   am
    10    25    27    1
    11    27    28    1
    12    28    29    1
    13    29    30    1
    14     1     2    1
    15     2     3   ar
    16     3     4   ar
    17     4     5   ar
    18     5     6   ar
    19     6     7   ar
    20     7    11    1
    21    11    12   ar
    22    12    13   ar
    23    13    14   ar
    24    14    15    1
    25    14    16   ar
    26    16    17   ar
    27     7     8   ar
    28     8     9   ar
    29     9    10   ar
    30    30    27    1
    31    10     2   ar
    32     9     4   ar
    33    17    11   ar
    34    20    21    1
    35    25    26    1
@<TRIPOS>MOLECULE
*****
 32 35 0 0 0
SMALL
GASTEIGER

@<TRIPOS>ATOM
      1 C          61.0739   88.3124    9.2114 C.3     1  UNL1        0.2129
      2 C          61.9543   88.6874   10.3666 C.ar    1  UNL1        0.1110
      3 N          62.1963   87.8615   11.5951 N.ar    1  UNL1       -0.2412
      4 C          63.1389   88.6178   12.4838 C.ar    1  UNL1        0.0875
      5 C          63.7310   88.2958   13.8238 C.ar    1  UNL1        0.0196
      6 C          64.6637   89.2672   14.4845 C.ar    1  UNL1        0.0016
      7 C          65.0042   90.5605   13.8052 C.ar    1  UNL1        0.0021
      8 C          64.4120   90.8824   12.4652 C.ar    1  UNL1        0.0081
      9 C          63.4794   89.9110   11.8045 C.ar    1  UNL1        0.0482
     10 S          62.7473   89.9540   10.4960 S.2     1  UNL1       -0.0693
     11 C          65.9369   91.5319   14.4659 C.ar    1  UNL1        0.0194
     12 C          67.2357   91.8910   13.8072 C.ar    1  UNL1        0.0055
     13 C          68.1685   92.8624   14.4679 C.ar    1  UNL1        0.0497
     14 C          67.8023   93.4746   15.7874 C.ar    1  UNL1        0.2223
     15 F          68.7349   94.4459   16.4482 F       1  UNL1       -0.1832
     16 N          66.5034   93.1154   16.4462 N.ar    1  UNL1       -0.2165
     17 C          65.5707   92.1440   15.7855 C.ar    1  UNL1        0.1012
     18 C          60.1128   89.3149    8.6446 C.2     1  UNL1        0.2430
     19 O          59.6105   90.4396    9.5007 O.2     1  UNL1       -0.2735
     20 N          59.6540   89.1927    7.2218 N.am    1  UNL1       -0.2955
     21 H          59.9837   88.4546    6.6599 H       1  UNL1        0.1499
     22 C          58.6929   90.1952    6.6550 C.3     1  UNL1        0.1757
     23 C          59.0731   90.9989    5.4469 C.2     1  UNL1        0.2426
     24 O          58.0081   91.6362    4.6044 O.2     1  UNL1       -0.2733
     25 N          60.5183   91.1654    5.0812 N.am    1  UNL1       -0.3000
     26 H          61.2172   90.7471    5.6341 H       1  UNL1        0.1496
     27 C          60.8985   91.9691    3.8731 C.3     1  UNL1        0.1310
     28 C          60.2053   92.9836    3.0129 C.3     1  UNL1        0.1642
     29 O          61.4362   93.1056    2.1646 O.3     1  UNL1       -0.3501
     30 C          62.1296   92.0911    3.0248 C.3     1  UNL1        0.1642
     31 N          61.2353   85.5575    8.0348 N.1     1  UNL1       -0.1950
     32 C          61.1547   86.9350    8.6231 C.1     1  UNL1        0.0881
@<TRIPOS>BOND
     1    31    32    3
     2    32     1    1
     3     1    18    1
     4    18    19    2
     5    18    20   am
     6    20    22    1
     7    22    23    1
     8    23    24    2
     9    23    25   am
    10    25    27    1
    11    27    28    1
    12    28    29    1
    13    29    30    1
    14     1     2    1
    15     2     3   ar
    16     3     4   ar
    17     4     5   ar
    18     5     6   ar
    19     6     7   ar
    20     7    11    1
    21    11    12   ar
    22    12    13   ar
    23    13    14   ar
    24    14    15    1
    25    14    16   ar
    26    16    17   ar
    27     7     8   ar
    28     8     9   ar
    29     9    10   ar
    30    30    27    1
    31    10     2   ar
    32     9     4   ar
    33    17    11   ar
    34    20    21    1
    35    25    26    1
@<TRIPOS>MOLECULE
*****
 32 35 0 0 0
SMALL
GASTEIGER

@<TRIPOS>ATOM
      1 C          61.5341   88.0061    9.6629 C.3     1  UNL1        0.2129
      2 C          62.3735   88.5635   10.7741 C.ar    1  UNL1        0.1110
      3 N          62.5477   87.9591   12.1358 N.ar    1  UNL1       -0.2412
      4 C          63.4679   88.8452   12.9220 C.ar    1  UNL1        0.0875
      5 C          63.9976   88.7519   14.3222 C.ar    1  UNL1        0.0196
      6 C          64.9218   89.8106   14.8465 C.ar    1  UNL1        0.0016
      7 C          65.3162   90.9627   13.9707 C.ar    1  UNL1        0.0021
      8 C          64.7865   91.0560   12.5704 C.ar    1  UNL1        0.0081
      9 C          63.8624   89.9973   12.0461 C.ar    1  UNL1        0.0482
     10 S          63.1860   89.8231   10.7186 S.2     1  UNL1       -0.0693
     11 C          66.2404   92.0215   14.4951 C.ar    1  UNL1        0.0194
     12 C          67.1094   91.7366   15.6840 C.ar    1  UNL1        0.0055
     13 C          68.0336   92.7954   16.2084 C.ar    1  UNL1        0.0497
     14 C          68.0887   94.1390   15.5439 C.ar    1  UNL1        0.2223
     15 F          69.0128   95.1977   16.0682 F       1  UNL1       -0.1832
     16 N          67.2196   94.4238   14.3549 N.ar    1  UNL1       -0.2165
     17 C          66.2955   93.3651   13.8305 C.ar    1  UNL1        0.1012
     18 C          61.6953   86.5739    9.2470 C.2     1  UNL1        0.2430
     19 O          60.7237   85.9586    8.2840 O.2     1  UNL1       -0.2735
     20 N          62.8282   85.7571    9.7942 N.am    1  UNL1       -0.2955
     21 H          63.4659   86.1609   10.4262 H       1  UNL1        0.1499
     22 C          62.9894   84.3249    9.3783 C.3     1  UNL1        0.1757
     23 C          63.3973   83.2924   10.3870 C.2     1  UNL1        0.2426
     24 O          64.6005   82.4326   10.1356 O.2     1  UNL1       -0.2733
     25 N          62.6021   83.1196   11.6470 N.am    1  UNL1       -0.3000
     26 H          61.8124   83.6839   11.8120 H       1  UNL1        0.1496
     27 C          63.0100   82.0871   12.6557 C.3     1  UNL1        0.1310
     28 C          63.8827   82.0828   13.8757 C.3     1  UNL1        0.1642
     29 O          63.5869   80.6269   14.0823 O.3     1  UNL1       -0.3501
     30 C          62.7141   80.6311   12.8623 C.3     1  UNL1        0.1642
     31 N          59.5327   89.7555    8.2721 N.1     1  UNL1       -0.1950
     32 C          60.5334   88.8808    8.9676 C.1     1  UNL1        0.0881
@<TRIPOS>BOND
     1    31    32    3
     2    32     1    1
     3     1    18    1
     4    18    19    2
     5    18    20   am
     6    20    22    1
     7    22    23    1
     8    23    24    2
     9    23    25   am
    10    25    27    1
    11    27    28    1
    12    28    29    1
    13    29    30    1
    14     1     2    1
    15     2     3   ar
    16     3     4   ar
    17     4     5   ar
    18     5     6   ar
    19     6     7   ar
    20     7    11    1
    21    11    12   ar
    22    12    13   ar
    23    13    14   ar
    24    14    15    1
    25    14    16   ar
    26    16    17   ar
    27     7     8   ar
    28     8     9   ar
    29     9    10   ar
    30    30    27    1
    31    10     2   ar
    32     9     4   ar
    33    17    11   ar
    34    20    21    1
    35    25    26    1
@<TRIPOS>MOLECULE
*****
 32 35 0 0 0
SMALL
GASTEIGER

@<TRIPOS>ATOM
      1 C          60.8721   88.5481   11.2469 C.3     1  UNL1        0.2129
      2 C          62.0370   89.4570   11.5057 C.ar    1  UNL1        0.1110
      3 N          62.5607   90.5070   10.5712 N.ar    1  UNL1       -0.2412
      4 C          63.7301   91.1744   11.2323 C.ar    1  UNL1        0.0875
      5 C          64.6394   92.2802   10.7848 C.ar    1  UNL1        0.0196
      6 C          65.7478   92.7485   11.6804 C.ar    1  UNL1        0.0016
      7 C          65.9468   92.1110   13.0235 C.ar    1  UNL1        0.0021
      8 C          65.0376   91.0052   13.4710 C.ar    1  UNL1        0.0081
      9 C          63.9292   90.5368   12.5754 C.ar    1  UNL1        0.0482
     10 S          62.8828   89.4755   12.7443 S.2     1  UNL1       -0.0693
     11 C          67.0553   92.5794   13.9192 C.ar    1  UNL1        0.0194
     12 C          66.7416   93.4036   15.1325 C.ar    1  UNL1        0.0055
     13 C          67.8500   93.8720   16.0281 C.ar    1  UNL1        0.0497
     14 C          69.2721   93.5160   15.7104 C.ar    1  UNL1        0.2223
     15 F          70.3805   93.9844   16.6059 F       1  UNL1       -0.1832
     16 N          69.5858   92.6917   14.4970 N.ar    1  UNL1       -0.2165
     17 C          68.4774   92.2234   13.6014 C.ar    1  UNL1        0.1012
     18 C          61.0778   87.2550   10.5153 C.2     1  UNL1        0.2430
     19 O          60.0699   86.7975    9.5028 O.2     1  UNL1       -0.2735
     20 N          62.2913   86.4192   10.7961 N.am    1  UNL1       -0.2955
     21 H          62.9528   86.7194   11.4606 H       1  UNL1        0.1499
     22 C          62.4970   85.1259   10.0644 C.3     1  UNL1        0.1757
     23 C          63.0036   83.9206   10.7996 C.2     1  UNL1        0.2426
     24 O          64.0208   83.0238   10.1585 O.2     1  UNL1       -0.2733
     25 N          62.4931   83.6122   12.1759 N.am    1  UNL1       -0.3000
     26 H          61.8255   84.2008   12.5967 H       1  UNL1        0.1496
     27 C          62.9998   82.4069   12.9111 C.3     1  UNL1        0.1310
     28 C          62.8678   80.9233   12.7339 C.3     1  UNL1        0.1642
     29 O          63.7163   80.7023   13.9508 O.3     1  UNL1       -0.3501
     30 C          63.8484   82.1859   14.1281 C.3     1  UNL1        0.1642
     31 N          58.1308   89.3168   12.1927 N.1     1  UNL1       -0.1950
     32 C          59.5015   88.9325   11.7198 C.1     1  UNL1        0.0881
@<TRIPOS>BOND
     1    31    32    3
     2    32     1    1
     3     1    18    1
     4    18    19    2
     5    18    20   am
     6    20    22    1
     7    22    23    1
     8    23    24    2
     9    23    25   am
    10    25    27    1
    11    27    28    1
    12    28    29    1
    13    29    30    1
    14     1     2    1
    15     2     3   ar
    16     3     4   ar
    17     4     5   ar
    18     5     6   ar
    19     6     7   ar
    20     7    11    1
    21    11    12   ar
    22    12    13   ar
    23    13    14   ar
    24    14    15    1
    25    14    16   ar
    26    16    17   ar
    27     7     8   ar
    28     8     9   ar
    29     9    10   ar
    30    30    27    1
    31    10     2   ar
    32     9     4   ar
    33    17    11   ar
    34    20    21    1
    35    25    26    1
@<TRIPOS>MOLECULE
*****
 32 35 0 0 0
SMALL
GASTEIGER

@<TRIPOS>ATOM
      1 C          58.7357   90.5448    5.6149 C.3     1  UNL1        0.2129
      2 C          59.3352   89.5949    6.6090 C.ar    1  UNL1        0.1110
      3 N          59.2372   88.0987    6.5689 N.ar    1  UNL1       -0.2412
      4 C          59.9795   87.5536    7.7530 C.ar    1  UNL1        0.0875
      5 C          60.2203   86.1514    8.2280 C.ar    1  UNL1        0.0196
      6 C          61.0179   85.9085    9.4749 C.ar    1  UNL1        0.0016
      7 C          61.5746   87.0679   10.2468 C.ar    1  UNL1        0.0021
      8 C          61.3338   88.4701    9.7718 C.ar    1  UNL1        0.0081
      9 C          60.5362   88.7130    8.5249 C.ar    1  UNL1        0.0482
     10 S          60.1380   89.9746    7.8179 S.2     1  UNL1       -0.0693
     11 C          62.3722   86.8250   11.4938 C.ar    1  UNL1        0.0194
     12 C          62.5437   85.4287   12.0143 C.ar    1  UNL1        0.0055
     13 C          63.3413   85.1858   13.2613 C.ar    1  UNL1        0.0497
     14 C          63.9674   86.3392   13.9877 C.ar    1  UNL1        0.2223
     15 F          64.7650   86.0963   15.2346 F       1  UNL1       -0.1832
     16 N          63.7960   87.7355   13.4670 N.ar    1  UNL1       -0.2165
     17 C          62.9984   87.9784   12.2201 C.ar    1  UNL1        0.1012
     18 C          59.6262   91.3525    4.7179 C.2     1  UNL1        0.2430
     19 O          61.1168   91.2318    4.8348 O.2     1  UNL1       -0.2735
     20 N          59.0262   92.2809    3.7040 N.am    1  UNL1       -0.2955
     21 H          58.0479   92.3601    3.6273 H       1  UNL1        0.1499
     22 C          59.9167   93.0886    2.8070 C.3     1  UNL1        0.1757
     23 C          59.4813   93.4074    1.4075 C.2     1  UNL1        0.2426
     24 O          59.4265   94.8335    0.9455 O.2     1  UNL1       -0.2733
     25 N          59.1005   92.3002    0.4699 N.am    1  UNL1       -0.3000
     26 H          59.1365   91.3642    0.7732 H       1  UNL1        0.1496
     27 C          58.6651   92.6190   -0.9296 C.3     1  UNL1        0.1310
     28 C          59.3667   93.0183   -2.1938 C.3     1  UNL1        0.1642
     29 O          58.0492   93.0698   -2.9089 O.3     1  UNL1       -0.3501
     30 C          57.3474   92.6705   -1.6447 C.3     1  UNL1        0.1642
     31 N          55.7555   90.8291    5.4205 N.1     1  UNL1       -0.1950
     32 C          57.2456   90.6869    5.5177 C.1     1  UNL1        0.0881
@<TRIPOS>BOND
     1    31    32    3
     2    32     1    1
     3     1    18    1
     4    18    19    2
     5    18    20   am
     6    20    22    1
     7    22    23    1
     8    23    24    2
     9    23    25   am
    10    25    27    1
    11    27    28    1
    12    28    29    1
    13    29    30    1
    14     1     2    1
    15     2     3   ar
    16     3     4   ar
    17     4     5   ar
    18     5     6   ar
    19     6     7   ar
    20     7    11    1
    21    11    12   ar
    22    12    13   ar
    23    13    14   ar
    24    14    15    1
    25    14    16   ar
    26    16    17   ar
    27     7     8   ar
    28     8     9   ar
    29     9    10   ar
    30    30    27    1
    31    10     2   ar
    32     9     4   ar
    33    17    11   ar
    34    20    21    1
    35    25    26    1
