@<TRIPOS>MOLECULE
*****
 45 49 0 0 0
SMALL
GASTEIGER

@<TRIPOS>ATOM
      1 C          59.3764   88.8728    6.6670 C.2     1  UNL1        0.2437
      2 O          58.9931   87.5150    6.1577 O.2     1  UNL1       -0.2731
      3 N          60.1930   89.0013    7.9188 N.am    1  UNL1       -0.2778
      4 C          60.6497   90.2852    8.5457 C.3     1  UNL1        0.0956
      5 C          61.4352   89.9458    9.7777 C.3     1  UNL1        0.0496
      6 C          61.4640   88.4521    9.9121 C.3     1  UNL1        0.1514
      7 C          62.0902   87.5481   10.9323 C.ar    1  UNL1       -0.0046
      8 C          62.8578   88.1318   12.0812 C.ar    1  UNL1       -0.0032
      9 C          63.4839   87.2278   13.1013 C.ar    1  UNL1       -0.0015
     10 C          63.3424   85.7401   12.9726 C.ar    1  UNL1        0.0232
     11 C          62.5747   85.1563   11.8238 C.ar    1  UNL1       -0.0057
     12 C          61.9486   86.0603   10.8036 C.ar    1  UNL1       -0.0247
     13 C          61.1808   85.4766    9.6547 C.3     1  UNL1        0.0278
     14 C          60.5547   86.3806    8.6346 C.3     1  UNL1        0.0265
     15 C          60.6963   87.8684    8.7633 C.3     1  UNL1        0.1001
     16 N          59.8411   91.0431    5.1776 N.am    1  UNL1       -0.2719
     17 C          58.9889   92.1289    4.5904 C.2     1  UNL1        0.2260
     18 O          59.4759   93.2822    3.7639 O.2     1  UNL1       -0.2749
     19 C          57.5643   91.8590    4.9747 C.3     1  UNL1        0.0875
     20 C          57.5361   90.6064    5.7993 C.3     1  UNL1        0.0388
     21 C          58.9432   90.1021    5.9248 C.3     1  UNL1        0.1525
     22 C          61.3298   90.9199    5.0415 C.3     1  UNL1        0.1100
     23 C          61.9507   90.7931    3.6819 C.3     1  UNL1        0.1268
     24 N          63.4403   93.1089    2.4911 N.1     1  UNL1       -0.1958
     25 C          62.6955   91.9509    3.0865 C.1     1  UNL1        0.0750
     26 S          62.1982   89.1770   11.0009 S.O2    1  UNL1        0.0106
     27 O          62.9315   89.2781   10.7048 O.2     1  UNL1       -0.1684
     28 O          60.9595   89.1617   11.8465 O.2     1  UNL1       -0.1684
     29 C          62.9326   89.9020   12.0896 C.ar    1  UNL1        0.1061
     30 C          62.4659   89.7919   13.5109 C.ar    1  UNL1        0.0207
     31 C          63.2001   90.5168   14.5996 C.ar    1  UNL1        0.0310
     32 C          64.4011   91.3517   14.2671 C.ar    1  UNL1        0.1402
     33 F          65.1354   92.0767   15.3558 F       1  UNL1       -0.2042
     34 C          64.8678   91.4618   12.8457 C.ar    1  UNL1        0.0310
     35 C          64.1335   90.7369   11.7571 C.ar    1  UNL1        0.0207
     36 C          63.9685   84.8361   13.9928 C.3     1  UNL1        0.3242
     37 F          64.8771   85.9497   14.4219 F       1  UNL1       -0.2176
     38 C          64.5947   83.9321   15.0130 C.3     1  UNL1        0.4363
     39 F          65.2208   83.0281   16.0332 F       1  UNL1       -0.1666
     40 F          65.9554   84.2824   14.4882 F       1  UNL1       -0.1666
     41 F          63.3203   83.4742   15.6583 F       1  UNL1       -0.1666
     42 C          63.0599   83.7224   13.5637 C.3     1  UNL1        0.4363
     43 F          62.1514   82.6086   13.1345 F       1  UNL1       -0.1666
     44 F          61.7888   84.3033   14.1082 F       1  UNL1       -0.1666
     45 F          63.9745   82.7522   12.8763 F       1  UNL1       -0.1666
@<TRIPOS>BOND
     1    24    25    3
     2    25    23    1
     3    23    22    1
     4    22    16    1
     5    16    17   am
     6    17    18    2
     7    17    19    1
     8    19    20    1
     9    20    21    1
    10    21     1    1
    11     1     2    2
    12     1     3   am
    13     3     4    1
    14     4     5    1
    15     5     6    1
    16     6    26    1
    17    26    27    2
    18    26    28    2
    19    26    29    1
    20    29    30   ar
    21    30    31   ar
    22    31    32   ar
    23    32    33    1
    24    32    34   ar
    25    34    35   ar
    26     6     7    1
    27     7     8   ar
    28     8     9   ar
    29     9    10   ar
    30    10    36    1
    31    36    37    1
    32    36    38    1
    33    38    39    1
    34    38    40    1
    35    38    41    1
    36    36    42    1
    37    42    43    1
    38    42    44    1
    39    42    45    1
    40    10    11   ar
    41    11    12   ar
    42    12    13    1
    43    13    14    1
    44    15    14    1
    45    21    16    1
    46    15     3    1
    47    15     6    1
    48    35    29   ar
    49    12     7   ar
@<TRIPOS>MOLECULE
*****
 45 49 0 0 0
SMALL
GASTEIGER

@<TRIPOS>ATOM
      1 C          55.5397   95.4726   -3.8190 C.2     1  UNL1        0.2437
      2 O          54.7555   95.5044   -2.5408 O.2     1  UNL1       -0.2731
      3 N          57.0389   95.4401   -3.7786 N.am    1  UNL1       -0.2778
      4 C          57.9524   95.4065   -4.9679 C.3     1  UNL1        0.0956
      5 C          59.3658   95.3811   -4.4661 C.3     1  UNL1        0.0496
      6 C          59.3257   95.3990   -2.9667 C.3     1  UNL1        0.1514
      7 C          60.4130   95.3868   -1.9334 C.ar    1  UNL1       -0.0046
      8 C          61.8511   95.3503   -2.3583 C.ar    1  UNL1       -0.0032
      9 C          62.9383   95.3381   -1.3250 C.ar    1  UNL1       -0.0015
     10 C          62.5874   95.3624    0.1332 C.ar    1  UNL1        0.0232
     11 C          61.1494   95.3988    0.5581 C.ar    1  UNL1       -0.0057
     12 C          60.0621   95.4110   -0.4752 C.ar    1  UNL1       -0.0247
     13 C          58.6240   95.4475   -0.0504 C.3     1  UNL1        0.0278
     14 C          57.5368   95.4597   -1.0837 C.3     1  UNL1        0.0265
     15 C          57.8876   95.4354   -2.5419 C.3     1  UNL1        0.1001
     16 N          53.4823   96.0831   -5.4125 N.am    1  UNL1       -0.2719
     17 C          53.1547   95.8512   -6.8578 C.2     1  UNL1        0.2260
     18 O          51.9061   96.2946   -7.5610 O.2     1  UNL1       -0.2749
     19 C          54.2950   95.0980   -7.4764 C.3     1  UNL1        0.0875
     20 C          55.3272   94.8646   -6.4134 C.3     1  UNL1        0.0388
     21 C          54.8249   95.4734   -5.1377 C.3     1  UNL1        0.1525
     22 C          52.6187   96.7992   -4.4166 C.3     1  UNL1        0.1100
     23 C          51.3499   96.1639   -3.9304 C.3     1  UNL1        0.1268
     24 N          48.7917   96.5741   -5.4429 N.1     1  UNL1       -0.1958
     25 C          50.0708   96.3690   -4.6866 C.1     1  UNL1        0.0750
     26 S          60.7114   95.3620   -3.5397 S.O2    1  UNL1        0.0106
     27 O          60.9031   94.5883   -3.5311 O.2     1  UNL1       -0.1684
     28 O          60.6854   96.8532   -3.6992 O.2     1  UNL1       -0.1684
     29 C          62.0973   95.3250   -4.1126 C.ar    1  UNL1        0.1061
     30 C          62.8483   96.6029   -4.3422 C.ar    1  UNL1        0.0207
     31 C          64.2340   96.5659   -4.9152 C.ar    1  UNL1        0.0310
     32 C          64.8688   95.2510   -5.2585 C.ar    1  UNL1        0.1402
     33 F          66.2546   95.2139   -5.8314 F       1  UNL1       -0.2042
     34 C          64.1178   93.9730   -5.0289 C.ar    1  UNL1        0.0310
     35 C          62.7320   94.0100   -4.4560 C.ar    1  UNL1        0.0207
     36 C          63.6747   95.3502    1.1665 C.3     1  UNL1        0.3242
     37 F          63.1073   96.5967    1.7782 F       1  UNL1       -0.2176
     38 C          64.7620   95.3380    2.1998 C.3     1  UNL1        0.4363
     39 F          65.8493   95.3259    3.2331 F       1  UNL1       -0.1666
     40 F          64.2680   94.0145    2.7039 F       1  UNL1       -0.1666
     41 F          65.3848   96.6502    1.8254 F       1  UNL1       -0.1666
     42 C          64.2422   94.1037    0.5548 C.3     1  UNL1        0.4363
     43 F          64.8096   92.8572   -0.0570 F       1  UNL1       -0.1666
     44 F          63.0486   93.2258    0.7881 F       1  UNL1       -0.1666
     45 F          65.6140   94.5118    0.1057 F       1  UNL1       -0.1666
@<TRIPOS>BOND
     1    24    25    3
     2    25    23    1
     3    23    22    1
     4    22    16    1
     5    16    17   am
     6    17    18    2
     7    17    19    1
     8    19    20    1
     9    20    21    1
    10    21     1    1
    11     1     2    2
    12     1     3   am
    13     3     4    1
    14     4     5    1
    15     5     6    1
    16     6    26    1
    17    26    27    2
    18    26    28    2
    19    26    29    1
    20    29    30   ar
    21    30    31   ar
    22    31    32   ar
    23    32    33    1
    24    32    34   ar
    25    34    35   ar
    26     6     7    1
    27     7     8   ar
    28     8     9   ar
    29     9    10   ar
    30    10    36    1
    31    36    37    1
    32    36    38    1
    33    38    39    1
    34    38    40    1
    35    38    41    1
    36    36    42    1
    37    42    43    1
    38    42    44    1
    39    42    45    1
    40    10    11   ar
    41    11    12   ar
    42    12    13    1
    43    13    14    1
    44    15    14    1
    45    21    16    1
    46    15     3    1
    47    15     6    1
    48    35    29   ar
    49    12     7   ar
