@<TRIPOS>MOLECULE
*****
 26 28 0 0 0
SMALL
GASTEIGER

@<TRIPOS>ATOM
      1 C          62.6019   86.3651   10.9114 C.3     1  UNL1        0.0564
      2 C          64.2653   89.9519   14.2831 C.3     1  UNL1        0.0310
      3 C          63.9817   88.5179   13.9465 C.ar    1  UNL1       -0.0221
      4 C          64.2463   87.4433   14.9590 C.ar    1  UNL1       -0.0043
      5 C          63.9627   86.0094   14.6224 C.ar    1  UNL1       -0.0006
      6 C          63.4146   85.6499   13.2732 C.ar    1  UNL1       -0.0037
      7 C          63.1500   86.7245   12.2607 C.ar    1  UNL1       -0.0155
      8 C          63.4336   88.1584   12.5973 C.ar    1  UNL1       -0.0079
      9 C          61.8734   87.6752   10.8584 C.ar    1  UNL1       -0.0152
     10 C          62.4298   88.8106   10.0513 C.ar    1  UNL1       -0.0037
     11 C          61.7013   90.1207    9.9983 C.ar    1  UNL1       -0.0003
     12 C          60.4165   90.2955   10.7525 C.ar    1  UNL1       -0.0000
     13 C          59.8601   89.1602   11.5596 C.ar    1  UNL1       -0.0003
     14 C          60.5886   87.8500   11.6126 C.ar    1  UNL1       -0.0037
     15 C          62.0537   86.0057    9.5622 C.ar    1  UNL1       -0.0152
     16 C          60.6176   86.2906    9.2360 C.ar    1  UNL1       -0.0037
     17 C          60.0694   85.9313    7.8868 C.ar    1  UNL1       -0.0003
     18 C          60.9574   85.2870    6.8638 C.ar    1  UNL1       -0.0000
     19 C          62.3934   85.0021    7.1900 C.ar    1  UNL1       -0.0003
     20 C          62.9417   85.3614    8.5392 C.ar    1  UNL1       -0.0037
     21 C          63.3304   85.0549   10.9644 C.3     1  UNL1        0.0136
     22 C          62.5830   83.7935   11.2810 C.3     1  UNL1        0.0178
     23 C          63.3258   82.4987   11.4290 C.3     1  UNL1        0.0652
     24 N          64.8252   82.4951   11.4730 N.3     1  UNL1       -0.3211
     25 H          65.1926   82.8006   10.5719 H       1  UNL1        0.1189
     26 H          65.1571   81.5516   11.6733 H       1  UNL1        0.1189
@<TRIPOS>BOND
     1     2     3    1
     2     3     4   ar
     3     4     5   ar
     4     5     6   ar
     5     6     7   ar
     6     7     1    1
     7     1    21    1
     8    21    22    1
     9    22    23    1
    10    23    24    1
    11     1     9    1
    12     9    10   ar
    13    10    11   ar
    14    11    12   ar
    15    12    13   ar
    16    13    14   ar
    17     1    15    1
    18    15    16   ar
    19    16    17   ar
    20    17    18   ar
    21    18    19   ar
    22    19    20   ar
    23     7     8   ar
    24     8     3   ar
    25    14     9   ar
    26    20    15   ar
    27    24    25    1
    28    24    26    1
@<TRIPOS>MOLECULE
*****
 26 28 0 0 0
SMALL
GASTEIGER

@<TRIPOS>ATOM
      1 C          62.6004   86.3673   10.9118 C.3     1  UNL1        0.0564
      2 C          64.2677   89.9543   14.2814 C.3     1  UNL1        0.0310
      3 C          63.9829   88.5204   13.9455 C.ar    1  UNL1       -0.0221
      4 C          64.2470   87.4461   14.9584 C.ar    1  UNL1       -0.0043
      5 C          63.9622   86.0122   14.6225 C.ar    1  UNL1       -0.0006
      6 C          63.4134   85.6526   13.2737 C.ar    1  UNL1       -0.0037
      7 C          63.1493   86.7269   12.2608 C.ar    1  UNL1       -0.0155
      8 C          63.4341   88.1608   12.5967 C.ar    1  UNL1       -0.0079
      9 C          61.8719   87.6774   10.8591 C.ar    1  UNL1       -0.0152
     10 C          62.4271   88.8123   10.0504 C.ar    1  UNL1       -0.0037
     11 C          61.6986   90.1224    9.9977 C.ar    1  UNL1       -0.0003
     12 C          60.4149   90.2978   10.7536 C.ar    1  UNL1       -0.0000
     13 C          59.8597   89.1630   11.5623 C.ar    1  UNL1       -0.0003
     14 C          60.5882   87.8528   11.6150 C.ar    1  UNL1       -0.0037
     15 C          62.0515   86.0078    9.5630 C.ar    1  UNL1       -0.0152
     16 C          62.9388   85.3630    8.5397 C.ar    1  UNL1       -0.0037
     17 C          62.3899   85.0035    7.1909 C.ar    1  UNL1       -0.0003
     18 C          60.9538   85.2888    6.8652 C.ar    1  UNL1       -0.0000
     19 C          60.0665   85.9336    7.8884 C.ar    1  UNL1       -0.0003
     20 C          60.6154   86.2931    9.2373 C.ar    1  UNL1       -0.0037
     21 C          63.3289   85.0572   10.9646 C.3     1  UNL1        0.0136
     22 C          62.5815   83.7956   11.2805 C.3     1  UNL1        0.0178
     23 C          63.3246   82.5012   11.4304 C.3     1  UNL1        0.0652
     24 N          64.8240   82.4975   11.4709 N.3     1  UNL1       -0.3211
     25 H          65.1893   82.8004   10.5680 H       1  UNL1        0.1189
     26 H          65.1564   81.5547   11.6731 H       1  UNL1        0.1189
@<TRIPOS>BOND
     1     2     3    1
     2     3     4   ar
     3     4     5   ar
     4     5     6   ar
     5     6     7   ar
     6     7     1    1
     7     1    21    1
     8    21    22    1
     9    22    23    1
    10    23    24    1
    11     1     9    1
    12     9    10   ar
    13    10    11   ar
    14    11    12   ar
    15    12    13   ar
    16    13    14   ar
    17     1    15    1
    18    15    16   ar
    19    16    17   ar
    20    17    18   ar
    21    18    19   ar
    22    19    20   ar
    23     7     8   ar
    24     8     3   ar
    25    14     9   ar
    26    20    15   ar
    27    24    25    1
    28    24    26    1
@<TRIPOS>MOLECULE
*****
 26 28 0 0 0
SMALL
GASTEIGER

@<TRIPOS>ATOM
      1 C          65.0974   91.8092   13.2481 C.3     1  UNL1        0.0564
      2 C          64.4690   86.8980   14.8247 C.3     1  UNL1        0.0310
      3 C          64.2418   88.3667   15.0279 C.ar    1  UNL1       -0.0221
      4 C          63.4733   88.8486   16.2225 C.ar    1  UNL1       -0.0043
      5 C          63.2461   90.3173   16.4257 C.ar    1  UNL1       -0.0006
      6 C          63.7875   91.3041   15.4343 C.ar    1  UNL1       -0.0037
      7 C          64.5560   90.8223   14.2396 C.ar    1  UNL1       -0.0155
      8 C          64.7832   89.3536   14.0365 C.ar    1  UNL1       -0.0079
      9 C          66.3116   92.0055   14.1066 C.ar    1  UNL1       -0.0152
     10 C          67.6737   91.6908   13.5626 C.ar    1  UNL1       -0.0037
     11 C          68.8879   91.8871   14.4211 C.ar    1  UNL1       -0.0003
     12 C          68.7402   92.3982   15.8236 C.ar    1  UNL1       -0.0000
     13 C          67.3782   92.7129   16.3676 C.ar    1  UNL1       -0.0003
     14 C          66.1639   92.5166   15.5091 C.ar    1  UNL1       -0.0037
     15 C          65.6388   92.7960   12.2567 C.ar    1  UNL1       -0.0152
     16 C          65.9362   94.2027   12.6845 C.ar    1  UNL1       -0.0037
     17 C          66.4776   95.1895   11.6931 C.ar    1  UNL1       -0.0003
     18 C          66.7216   94.7698   10.2738 C.ar    1  UNL1       -0.0000
     19 C          66.4242   93.3633    9.8460 C.ar    1  UNL1       -0.0003
     20 C          65.8827   92.3763   10.8374 C.ar    1  UNL1       -0.0037
     21 C          63.8831   91.6129   12.3896 C.3     1  UNL1        0.0136
     22 C          63.4949   90.2344   11.9435 C.3     1  UNL1        0.0178
     23 C          62.0622   89.9250   11.6246 C.3     1  UNL1        0.0652
     24 N          61.0627   89.7748   12.7329 N.3     1  UNL1       -0.3211
     25 H          61.2947   88.9530   13.2909 H       1  UNL1        0.1189
     26 H          60.1294   89.6641   12.3365 H       1  UNL1        0.1189
@<TRIPOS>BOND
     1     2     3    1
     2     3     4   ar
     3     4     5   ar
     4     5     6   ar
     5     6     7   ar
     6     7     1    1
     7     1    21    1
     8    21    22    1
     9    22    23    1
    10    23    24    1
    11     1     9    1
    12     9    10   ar
    13    10    11   ar
    14    11    12   ar
    15    12    13   ar
    16    13    14   ar
    17     1    15    1
    18    15    16   ar
    19    16    17   ar
    20    17    18   ar
    21    18    19   ar
    22    19    20   ar
    23     7     8   ar
    24     8     3   ar
    25    14     9   ar
    26    20    15   ar
    27    24    25    1
    28    24    26    1
@<TRIPOS>MOLECULE
*****
 26 28 0 0 0
SMALL
GASTEIGER

@<TRIPOS>ATOM
      1 C          65.3787   91.7223   12.8650 C.3     1  UNL1        0.0564
      2 C          68.9891   92.3135    9.1751 C.3     1  UNL1        0.0310
      3 C          67.8167   92.8482    9.9429 C.ar    1  UNL1       -0.0221
      4 C          67.2771   94.2132    9.6337 C.ar    1  UNL1       -0.0043
      5 C          66.1047   94.7478   10.4015 C.ar    1  UNL1       -0.0006
      6 C          65.4719   93.9176   11.4786 C.ar    1  UNL1       -0.0037
      7 C          66.0115   92.5526   11.7879 C.ar    1  UNL1       -0.0155
      8 C          67.1839   92.0180   11.0200 C.ar    1  UNL1       -0.0079
      9 C          66.4004   92.2162   13.8459 C.ar    1  UNL1       -0.0152
     10 C          67.2850   91.2398   14.5631 C.ar    1  UNL1       -0.0037
     11 C          68.3067   91.7337   15.5440 C.ar    1  UNL1       -0.0003
     12 C          68.4439   93.2039   15.8077 C.ar    1  UNL1       -0.0000
     13 C          67.5595   94.1803   15.0905 C.ar    1  UNL1       -0.0003
     14 C          66.5377   93.6864   14.1095 C.ar    1  UNL1       -0.0037
     15 C          64.7460   90.8920   13.9421 C.ar    1  UNL1       -0.0152
     16 C          64.2625   91.5428   15.2042 C.ar    1  UNL1       -0.0037
     17 C          63.6298   90.7125   16.2814 C.ar    1  UNL1       -0.0003
     18 C          63.4806   89.2314   16.0965 C.ar    1  UNL1       -0.0000
     19 C          63.9640   88.5806   14.8345 C.ar    1  UNL1       -0.0003
     20 C          64.5968   89.4109   13.7573 C.ar    1  UNL1       -0.0037
     21 C          64.3570   91.2284   11.8841 C.3     1  UNL1        0.0136
     22 C          62.8961   91.4315   12.1567 C.3     1  UNL1        0.0178
     23 C          61.8869   90.4815   11.5829 C.3     1  UNL1        0.0652
     24 N          60.9242   89.7727   12.4889 N.3     1  UNL1       -0.3211
     25 H          61.4366   89.1319   13.0950 H       1  UNL1        0.1189
     26 H          60.2535   89.2472   11.9281 H       1  UNL1        0.1189
@<TRIPOS>BOND
     1     2     3    1
     2     3     4   ar
     3     4     5   ar
     4     5     6   ar
     5     6     7   ar
     6     7     1    1
     7     1    21    1
     8    21    22    1
     9    22    23    1
    10    23    24    1
    11     1     9    1
    12     9    10   ar
    13    10    11   ar
    14    11    12   ar
    15    12    13   ar
    16    13    14   ar
    17     1    15    1
    18    15    16   ar
    19    16    17   ar
    20    17    18   ar
    21    18    19   ar
    22    19    20   ar
    23     7     8   ar
    24     8     3   ar
    25    14     9   ar
    26    20    15   ar
    27    24    25    1
    28    24    26    1
@<TRIPOS>MOLECULE
*****
 26 28 0 0 0
SMALL
GASTEIGER

@<TRIPOS>ATOM
      1 C          62.4476   86.5688   10.9227 C.3     1  UNL1        0.0564
      2 C          62.7384   84.4941    6.1676 C.3     1  UNL1        0.0310
      3 C          61.9447   85.1822    7.2384 C.ar    1  UNL1       -0.0221
      4 C          60.5026   85.5209    7.0024 C.ar    1  UNL1       -0.0043
      5 C          59.7089   86.2089    8.0732 C.ar    1  UNL1       -0.0006
      6 C          60.3572   86.5582    9.3799 C.ar    1  UNL1       -0.0037
      7 C          61.7992   86.2195    9.6159 C.ar    1  UNL1       -0.0155
      8 C          62.5930   85.5315    8.5451 C.ar    1  UNL1       -0.0079
      9 C          61.7231   87.8822   10.9311 C.ar    1  UNL1       -0.0152
     10 C          62.2433   89.0310   10.1189 C.ar    1  UNL1       -0.0037
     11 C          61.5187   90.3443   10.1273 C.ar    1  UNL1       -0.0003
     12 C          60.2739   90.5089   10.9478 C.ar    1  UNL1       -0.0000
     13 C          59.7536   89.3602   11.7600 C.ar    1  UNL1       -0.0003
     14 C          60.4782   88.0467   11.7516 C.ar    1  UNL1       -0.0037
     15 C          63.0960   86.9182   12.2294 C.ar    1  UNL1       -0.0152
     16 C          63.4463   85.8350   13.2062 C.ar    1  UNL1       -0.0037
     17 C          64.0946   86.1843   14.5129 C.ar    1  UNL1       -0.0003
     18 C          64.3927   87.6169   14.8429 C.ar    1  UNL1       -0.0000
     19 C          64.0424   88.7001   13.8663 C.ar    1  UNL1       -0.0003
     20 C          63.3940   88.3508   12.5595 C.ar    1  UNL1       -0.0037
     21 C          63.1722   85.2555   10.9143 C.3     1  UNL1        0.0136
     22 C          62.4568   84.0016   11.3215 C.3     1  UNL1        0.0178
     23 C          63.2126   82.7112   11.4387 C.3     1  UNL1        0.0652
     24 N          64.7033   82.6974   11.2720 N.3     1  UNL1       -0.3211
     25 H          64.9404   82.9476   10.3120 H       1  UNL1        0.1189
     26 H          65.0598   81.7642   11.4782 H       1  UNL1        0.1189
@<TRIPOS>BOND
     1     2     3    1
     2     3     4   ar
     3     4     5   ar
     4     5     6   ar
     5     6     7   ar
     6     7     1    1
     7     1    21    1
     8    21    22    1
     9    22    23    1
    10    23    24    1
    11     1     9    1
    12     9    10   ar
    13    10    11   ar
    14    11    12   ar
    15    12    13   ar
    16    13    14   ar
    17     1    15    1
    18    15    16   ar
    19    16    17   ar
    20    17    18   ar
    21    18    19   ar
    22    19    20   ar
    23     7     8   ar
    24     8     3   ar
    25    14     9   ar
    26    20    15   ar
    27    24    25    1
    28    24    26    1
@<TRIPOS>MOLECULE
*****
 26 28 0 0 0
SMALL
GASTEIGER

@<TRIPOS>ATOM
      1 C          62.4434   86.5699   10.9197 C.3     1  UNL1        0.0564
      2 C          62.7276   84.4909    6.1660 C.3     1  UNL1        0.0310
      3 C          61.9359   85.1818    7.2365 C.ar    1  UNL1       -0.0221
      4 C          60.4948   85.5242    7.0006 C.ar    1  UNL1       -0.0043
      5 C          59.7031   86.2152    8.0711 C.ar    1  UNL1       -0.0006
      6 C          60.3526   86.5637    9.3774 C.ar    1  UNL1       -0.0037
      7 C          61.7938   86.2214    9.6133 C.ar    1  UNL1       -0.0155
      8 C          62.5855   85.5304    8.5428 C.ar    1  UNL1       -0.0079
      9 C          61.7164   87.8819   10.9311 C.ar    1  UNL1       -0.0152
     10 C          60.4738   88.0437   11.7555 C.ar    1  UNL1       -0.0037
     11 C          59.7468   89.3556   11.7669 C.ar    1  UNL1       -0.0003
     12 C          60.2624   90.5059   10.9539 C.ar    1  UNL1       -0.0000
     13 C          61.5050   90.3442   10.1294 C.ar    1  UNL1       -0.0003
     14 C          62.2321   89.0322   10.1180 C.ar    1  UNL1       -0.0037
     15 C          63.0930   86.9185   12.2260 C.ar    1  UNL1       -0.0152
     16 C          63.3936   88.3507   12.5555 C.ar    1  UNL1       -0.0037
     17 C          64.0432   88.6993   13.8618 C.ar    1  UNL1       -0.0003
     18 C          64.3921   87.6158   14.8387 C.ar    1  UNL1       -0.0000
     19 C          64.0915   86.1837   14.5092 C.ar    1  UNL1       -0.0003
     20 C          63.4419   85.8350   13.2028 C.ar    1  UNL1       -0.0037
     21 C          63.1704   85.2580   10.9083 C.3     1  UNL1        0.0136
     22 C          62.4693   84.0081   11.3513 C.3     1  UNL1        0.0178
     23 C          63.2113   82.7049   11.3884 C.3     1  UNL1        0.0652
     24 N          64.7098   82.6930   11.3232 N.3     1  UNL1       -0.3211
     25 H          65.0132   83.0363   10.4118 H       1  UNL1        0.1189
     26 H          65.0484   81.7403   11.4576 H       1  UNL1        0.1189
@<TRIPOS>BOND
     1     2     3    1
     2     3     4   ar
     3     4     5   ar
     4     5     6   ar
     5     6     7   ar
     6     7     1    1
     7     1    21    1
     8    21    22    1
     9    22    23    1
    10    23    24    1
    11     1     9    1
    12     9    10   ar
    13    10    11   ar
    14    11    12   ar
    15    12    13   ar
    16    13    14   ar
    17     1    15    1
    18    15    16   ar
    19    16    17   ar
    20    17    18   ar
    21    18    19   ar
    22    19    20   ar
    23     7     8   ar
    24     8     3   ar
    25    14     9   ar
    26    20    15   ar
    27    24    25    1
    28    24    26    1
@<TRIPOS>MOLECULE
*****
 26 28 0 0 0
SMALL
GASTEIGER

@<TRIPOS>ATOM
      1 C          62.2104   85.9428   11.0333 C.3     1  UNL1        0.0564
      2 C          61.8616   81.2988   13.3380 C.3     1  UNL1        0.0310
      3 C          62.5106   82.2057   12.3348 C.ar    1  UNL1       -0.0221
      4 C          63.6341   81.6975   11.4809 C.ar    1  UNL1       -0.0043
      5 C          64.2831   82.6044   10.4777 C.ar    1  UNL1       -0.0006
      6 C          63.8086   84.0194   10.3285 C.ar    1  UNL1       -0.0037
      7 C          62.6850   84.5277   11.1825 C.ar    1  UNL1       -0.0155
      8 C          62.0360   83.6208   12.1857 C.ar    1  UNL1       -0.0079
      9 C          61.9537   85.7029    9.5751 C.ar    1  UNL1       -0.0152
     10 C          63.0637   85.2245    8.6868 C.ar    1  UNL1       -0.0037
     11 C          62.8069   84.9846    7.2286 C.ar    1  UNL1       -0.0003
     12 C          61.4401   85.2232    6.6585 C.ar    1  UNL1       -0.0000
     13 C          60.3301   85.7016    7.5467 C.ar    1  UNL1       -0.0003
     14 C          60.5868   85.9415    9.0051 C.ar    1  UNL1       -0.0037
     15 C          61.7359   87.3579   10.8841 C.ar    1  UNL1       -0.0152
     16 C          62.6067   88.3734   10.2055 C.ar    1  UNL1       -0.0037
     17 C          62.1321   89.7885   10.0563 C.ar    1  UNL1       -0.0003
     18 C          60.7868   90.1881   10.5857 C.ar    1  UNL1       -0.0000
     19 C          59.9159   89.1727   11.2643 C.ar    1  UNL1       -0.0003
     20 C          60.3905   87.7575   11.4135 C.ar    1  UNL1       -0.0037
     21 C          62.4672   86.1827   12.4915 C.3     1  UNL1        0.0136
     22 C          63.8755   86.2654   13.0014 C.3     1  UNL1        0.0178
     23 C          64.2020   85.7842   14.3842 C.3     1  UNL1        0.0652
     24 N          65.1389   84.6283   14.5742 N.3     1  UNL1       -0.3211
     25 H          64.7157   83.7815   14.1943 H       1  UNL1        0.1189
     26 H          65.3225   84.4995   15.5693 H       1  UNL1        0.1189
@<TRIPOS>BOND
     1     2     3    1
     2     3     4   ar
     3     4     5   ar
     4     5     6   ar
     5     6     7   ar
     6     7     1    1
     7     1    21    1
     8    21    22    1
     9    22    23    1
    10    23    24    1
    11     1     9    1
    12     9    10   ar
    13    10    11   ar
    14    11    12   ar
    15    12    13   ar
    16    13    14   ar
    17     1    15    1
    18    15    16   ar
    19    16    17   ar
    20    17    18   ar
    21    18    19   ar
    22    19    20   ar
    23     7     8   ar
    24     8     3   ar
    25    14     9   ar
    26    20    15   ar
    27    24    25    1
    28    24    26    1
@<TRIPOS>MOLECULE
*****
 26 28 0 0 0
SMALL
GASTEIGER

@<TRIPOS>ATOM
      1 C          65.2112   91.9392   13.1590 C.3     1  UNL1        0.0564
      2 C          66.3568   96.7649   11.6096 C.3     1  UNL1        0.0310
      3 C          66.3612   95.2855   11.3618 C.ar    1  UNL1       -0.0221
      4 C          66.9428   94.7395   10.0915 C.ar    1  UNL1       -0.0043
      5 C          66.9472   93.2602    9.8437 C.ar    1  UNL1       -0.0006
      6 C          66.3700   92.3267   10.8662 C.ar    1  UNL1       -0.0037
      7 C          65.7884   92.8727   12.1365 C.ar    1  UNL1       -0.0155
      8 C          65.7840   94.3520   12.3843 C.ar    1  UNL1       -0.0079
      9 C          66.4340   92.1151   14.0098 C.ar    1  UNL1       -0.0152
     10 C          66.3118   92.6945   15.3880 C.ar    1  UNL1       -0.0037
     11 C          67.5345   92.8704   16.2388 C.ar    1  UNL1       -0.0003
     12 C          68.8796   92.4670   15.7114 C.ar    1  UNL1       -0.0000
     13 C          69.0018   91.8876   14.3332 C.ar    1  UNL1       -0.0003
     14 C          67.7790   91.7117   13.4824 C.ar    1  UNL1       -0.0037
     15 C          64.6341   91.0058   14.1816 C.ar    1  UNL1       -0.0152
     16 C          63.9103   91.5554   15.3750 C.ar    1  UNL1       -0.0037
     17 C          63.3332   90.6220   16.3976 C.ar    1  UNL1       -0.0003
     18 C          63.4797   89.1390   16.2267 C.ar    1  UNL1       -0.0000
     19 C          64.2034   88.5894   15.0334 C.ar    1  UNL1       -0.0003
     20 C          64.7806   89.5228   14.0108 C.ar    1  UNL1       -0.0037
     21 C          63.9884   91.7633   12.3083 C.3     1  UNL1        0.0136
     22 C          63.6196   90.4020   11.7976 C.3     1  UNL1        0.0178
     23 C          62.8817   90.2626   10.4990 C.3     1  UNL1        0.0652
     24 N          62.7943   91.4270    9.5574 N.3     1  UNL1       -0.3211
     25 H          62.2447   92.1712    9.9870 H       1  UNL1        0.1189
     26 H          62.3460   91.1304    8.6906 H       1  UNL1        0.1189
@<TRIPOS>BOND
     1     2     3    1
     2     3     4   ar
     3     4     5   ar
     4     5     6   ar
     5     6     7   ar
     6     7     1    1
     7     1    21    1
     8    21    22    1
     9    22    23    1
    10    23    24    1
    11     1     9    1
    12     9    10   ar
    13    10    11   ar
    14    11    12   ar
    15    12    13   ar
    16    13    14   ar
    17     1    15    1
    18    15    16   ar
    19    16    17   ar
    20    17    18   ar
    21    18    19   ar
    22    19    20   ar
    23     7     8   ar
    24     8     3   ar
    25    14     9   ar
    26    20    15   ar
    27    24    25    1
    28    24    26    1
@<TRIPOS>MOLECULE
*****
 26 28 0 0 0
SMALL
GASTEIGER

@<TRIPOS>ATOM
      1 C          62.4734   86.2888   11.2043 C.3     1  UNL1        0.0564
      2 C          62.3277   84.6311    6.2818 C.3     1  UNL1        0.0310
      3 C          61.6677   85.3149    7.4423 C.ar    1  UNL1       -0.0221
      4 C          60.2748   85.8537    7.3021 C.ar    1  UNL1       -0.0043
      5 C          59.6148   86.5375    8.4626 C.ar    1  UNL1       -0.0006
      6 C          60.3476   86.6826    9.7633 C.ar    1  UNL1       -0.0037
      7 C          61.7405   86.1438    9.9036 C.ar    1  UNL1       -0.0155
      8 C          62.4005   85.4600    8.7431 C.ar    1  UNL1       -0.0079
      9 C          62.8440   84.8361   11.1574 C.ar    1  UNL1       -0.0152
     10 C          62.0410   83.8318   11.9300 C.ar    1  UNL1       -0.0037
     11 C          62.4116   82.3791   11.8831 C.ar    1  UNL1       -0.0003
     12 C          63.5852   81.9306   11.0636 C.ar    1  UNL1       -0.0000
     13 C          64.3881   82.9347   10.2910 C.ar    1  UNL1       -0.0003
     14 C          64.0175   84.3875   10.3379 C.ar    1  UNL1       -0.0037
     15 C          63.2062   86.4338   12.5050 C.ar    1  UNL1       -0.0152
     16 C          63.6063   85.2136   13.2805 C.ar    1  UNL1       -0.0037
     17 C          64.3391   85.3586   14.5812 C.ar    1  UNL1       -0.0003
     18 C          64.6720   86.7236   15.1065 C.ar    1  UNL1       -0.0000
     19 C          64.2720   87.9437   14.3311 C.ar    1  UNL1       -0.0003
     20 C          63.5390   87.7988   13.0303 C.ar    1  UNL1       -0.0037
     21 C          62.1027   87.7415   11.2512 C.3     1  UNL1        0.0136
     22 C          62.5301   88.6606   10.1456 C.3     1  UNL1        0.0178
     23 C          62.0116   90.0674   10.0971 C.3     1  UNL1        0.0652
     24 N          60.5723   90.3251    9.7625 N.3     1  UNL1       -0.3211
     25 H          60.3915   90.0433    8.7990 H       1  UNL1        0.1189
     26 H          60.3711   91.3193    9.8693 H       1  UNL1        0.1189
@<TRIPOS>BOND
     1     2     3    1
     2     3     4   ar
     3     4     5   ar
     4     5     6   ar
     5     6     7   ar
     6     7     1    1
     7     1    21    1
     8    21    22    1
     9    22    23    1
    10    23    24    1
    11     1     9    1
    12     9    10   ar
    13    10    11   ar
    14    11    12   ar
    15    12    13   ar
    16    13    14   ar
    17     1    15    1
    18    15    16   ar
    19    16    17   ar
    20    17    18   ar
    21    18    19   ar
    22    19    20   ar
    23     7     8   ar
    24     8     3   ar
    25    14     9   ar
    26    20    15   ar
    27    24    25    1
    28    24    26    1
