@<TRIPOS>MOLECULE
*****
 25 27 0 0 0
SMALL
GASTEIGER

@<TRIPOS>ATOM
      1 N          64.2293   88.8522   15.1060 N.am    1  UNL1       -0.3004
      2 C          64.1092   87.5703   14.3363 C.2     1  UNL1        0.2252
      3 O          63.4982   87.5724   12.9665 O.2     1  UNL1       -0.2750
      4 H          64.6304   88.8508   16.0051 H       1  UNL1        0.1497
      5 C          63.7383   90.1362   14.5057 C.3     1  UNL1        0.1164
      6 C          66.9342   92.2956   13.5710 C.ar    1  UNL1        0.1385
      7 C          66.5661   92.7657   12.1951 C.ar    1  UNL1        0.0369
      8 C          65.2554   92.3594   11.5892 C.ar    1  UNL1        0.0028
      9 C          64.3129   91.4829   12.3594 C.ar    1  UNL1       -0.0024
     10 C          64.6809   91.0127   13.7355 C.ar    1  UNL1        0.0004
     11 C          65.9916   91.4190   14.3413 C.ar    1  UNL1        0.0343
     12 C          68.2772   93.3485   15.5300 C.3     1  UNL1        0.2525
     13 O          68.2448   92.7020   14.1769 O.3     1  UNL1       -0.4714
     14 C          64.6002   86.2862   14.9366 C.3     1  UNL1        0.1154
     15 C          63.6293   85.1890   15.2577 C.3     1  UNL1        0.1377
     16 C          63.4494   85.9389   16.5443 C.3     1  UNL1        0.0335
     17 C          64.0121   84.6685   13.9040 C.3     1  UNL1        0.0613
     18 C          63.2401   83.4062   13.6574 C.3     1  UNL1        0.1290
     19 C          62.4041   82.1652   13.5526 C.3     1  UNL1        0.0305
     20 C          62.4790   81.3123   12.3210 C.3     1  UNL1        0.0025
     21 C          63.3899   81.7004   11.1942 C.3     1  UNL1        0.0002
     22 C          64.2259   82.9413   11.2990 C.3     1  UNL1        0.0025
     23 C          64.1510   83.7942   12.5306 C.3     1  UNL1        0.0305
     24 O          62.3802   83.1466   14.8587 O.3     1  UNL1       -0.2256
     25 O          62.6206   84.2485   15.8478 O.3     1  UNL1       -0.2251
@<TRIPOS>BOND
     1    12    13    1
     2    13     6    1
     3     6     7   ar
     4     7     8   ar
     5     8     9   ar
     6     9    10   ar
     7    10     5    1
     8     5     1    1
     9     1     2   am
    10     2     3    2
    11     2    14    1
    12    14    15    1
    13    15    16    1
    14    15    17    1
    15    17    18    1
    16    18    19    1
    17    19    20    1
    18    20    21    1
    19    21    22    1
    20    22    23    1
    21    18    24    1
    22    24    25    1
    23    10    11   ar
    24    11     6   ar
    25    25    15    1
    26    23    18    1
    27     1     4    1
@<TRIPOS>MOLECULE
*****
 25 27 0 0 0
SMALL
GASTEIGER

@<TRIPOS>ATOM
      1 N          64.3249   85.3895   14.2177 N.am    1  UNL1       -0.3004
      2 C          63.1138   84.5320   14.4366 C.2     1  UNL1        0.2252
      3 O          62.0307   84.9877   15.3689 O.2     1  UNL1       -0.2750
      4 H          65.0358   85.0903   13.6058 H       1  UNL1        0.1497
      5 C          64.4529   86.7027   14.9311 C.3     1  UNL1        0.1164
      6 C          64.1832   90.5766   14.1124 C.ar    1  UNL1        0.1385
      7 C          63.5102   90.5370   12.7725 C.ar    1  UNL1        0.0369
      8 C          63.1514   89.2193   12.1521 C.ar    1  UNL1        0.0028
      9 C          63.4657   87.9412   12.8716 C.ar    1  UNL1       -0.0024
     10 C          64.1387   87.9808   14.2116 C.ar    1  UNL1        0.0004
     11 C          64.4975   89.2985   14.8320 C.ar    1  UNL1        0.0343
     12 C          65.9685   92.1923   15.0880 C.3     1  UNL1        0.2525
     13 O          64.5420   91.8943   14.7328 O.3     1  UNL1       -0.4714
     14 C          62.9858   83.2186   13.7232 C.3     1  UNL1        0.1154
     15 C          63.6554   83.0177   12.3962 C.3     1  UNL1        0.1377
     16 C          64.4282   81.9578   13.1237 C.3     1  UNL1        0.0335
     17 C          62.7426   84.1196   11.9460 C.3     1  UNL1        0.0613
     18 C          63.0097   84.3782   10.4928 C.3     1  UNL1        0.1290
     19 C          63.3847   84.5230    9.0477 C.3     1  UNL1        0.0305
     20 C          62.6950   85.5443    8.1926 C.3     1  UNL1        0.0025
     21 C          61.6303   86.4209    8.7827 C.3     1  UNL1        0.0002
     22 C          61.2554   86.2761   10.2278 C.3     1  UNL1        0.0025
     23 C          61.9450   85.2547   11.0828 C.3     1  UNL1        0.0305
     24 O          64.0875   83.4360   10.0448 O.3     1  UNL1       -0.2256
     25 O          64.4866   82.5952   11.2211 O.3     1  UNL1       -0.2251
@<TRIPOS>BOND
     1    12    13    1
     2    13     6    1
     3     6     7   ar
     4     7     8   ar
     5     8     9   ar
     6     9    10   ar
     7    10     5    1
     8     5     1    1
     9     1     2   am
    10     2     3    2
    11     2    14    1
    12    14    15    1
    13    15    16    1
    14    15    17    1
    15    17    18    1
    16    18    19    1
    17    19    20    1
    18    20    21    1
    19    21    22    1
    20    22    23    1
    21    18    24    1
    22    24    25    1
    23    10    11   ar
    24    11     6   ar
    25    25    15    1
    26    23    18    1
    27     1     4    1
@<TRIPOS>MOLECULE
*****
 25 27 0 0 0
SMALL
GASTEIGER

@<TRIPOS>ATOM
      1 N          62.0677   89.1470   10.2001 N.am    1  UNL1       -0.3004
      2 C          60.8145   88.5255   10.7419 C.2     1  UNL1        0.2252
      3 O          60.1023   89.1604   11.8992 O.2     1  UNL1       -0.2750
      4 H          62.5352   88.7302    9.4404 H       1  UNL1        0.1497
      5 C          62.6085   90.4034   10.8157 C.3     1  UNL1        0.1164
      6 C          64.9623   91.4709   13.8273 C.ar    1  UNL1        0.1385
      7 C          65.0169   90.1932   14.6111 C.ar    1  UNL1        0.0369
      8 C          64.2687   88.9855   14.1298 C.ar    1  UNL1        0.0028
      9 C          63.4659   89.0556   12.8646 C.ar    1  UNL1       -0.0024
     10 C          63.4113   90.3333   12.0808 C.ar    1  UNL1        0.0004
     11 C          64.1594   91.5410   12.5621 C.ar    1  UNL1        0.0343
     12 C          66.4354   93.5518   13.3278 C.3     1  UNL1        0.2525
     13 O          65.7105   92.6786   14.3086 O.3     1  UNL1       -0.4714
     14 C          60.2737   87.2690   10.1263 C.3     1  UNL1        0.1154
     15 C          61.1626   86.4047    9.2821 C.3     1  UNL1        0.1377
     16 C          60.4805   87.0934    8.1373 C.3     1  UNL1        0.0335
     17 C          61.6588   85.8968   10.6033 C.3     1  UNL1        0.0613
     18 C          62.7120   84.8624   10.3364 C.3     1  UNL1        0.1290
     19 C          63.7405   83.8545    9.9166 C.3     1  UNL1        0.0305
     20 C          64.5047   83.0863   10.9538 C.3     1  UNL1        0.0025
     21 C          64.2405   83.3261   12.4108 C.3     1  UNL1        0.0002
     22 C          63.2120   84.3340   12.8305 C.3     1  UNL1        0.0025
     23 C          62.4477   85.1022   11.7933 C.3     1  UNL1        0.0305
     24 O          62.8666   84.7311    8.8501 O.3     1  UNL1       -0.2256
     25 O          61.9090   85.6844    8.1985 O.3     1  UNL1       -0.2251
@<TRIPOS>BOND
     1    12    13    1
     2    13     6    1
     3     6     7   ar
     4     7     8   ar
     5     8     9   ar
     6     9    10   ar
     7    10     5    1
     8     5     1    1
     9     1     2   am
    10     2     3    2
    11     2    14    1
    12    14    15    1
    13    15    16    1
    14    15    17    1
    15    17    18    1
    16    18    19    1
    17    19    20    1
    18    20    21    1
    19    21    22    1
    20    22    23    1
    21    18    24    1
    22    24    25    1
    23    10    11   ar
    24    11     6   ar
    25    25    15    1
    26    23    18    1
    27     1     4    1
@<TRIPOS>MOLECULE
*****
 25 27 0 0 0
SMALL
GASTEIGER

@<TRIPOS>ATOM
      1 N          62.6577   85.6257   12.4628 N.am    1  UNL1       -0.3004
      2 C          63.7586   84.6965   12.8808 C.2     1  UNL1        0.2252
      3 O          64.1535   83.5541   11.9927 O.2     1  UNL1       -0.2750
      4 H          62.3985   86.3756   13.0457 H       1  UNL1        0.1497
      5 C          61.9517   85.4123   11.1566 C.3     1  UNL1        0.1164
      6 C          61.3195   89.1563   10.0020 C.ar    1  UNL1        0.1385
      7 C          60.4068   88.9416    8.8313 C.ar    1  UNL1        0.0369
      8 C          60.0089   87.5505    8.4356 C.ar    1  UNL1        0.0028
      9 C          60.5239   86.3741    9.2107 C.ar    1  UNL1       -0.0024
     10 C          61.4367   86.5888   10.3815 C.ar    1  UNL1        0.0004
     11 C          61.8345   87.9799   10.7772 C.ar    1  UNL1        0.0343
     12 C          63.1103   90.8198   10.8826 C.3     1  UNL1        0.2525
     13 O          61.7173   90.5474   10.3977 O.3     1  UNL1       -0.4714
     14 C          64.4647   84.9099   14.1870 C.3     1  UNL1        0.1154
     15 C          63.7221   85.4877   15.3552 C.3     1  UNL1        0.1377
     16 C          63.3987   84.0545   15.6573 C.3     1  UNL1        0.0335
     17 C          64.2008   86.8001   14.8089 C.3     1  UNL1        0.0613
     18 C          63.6865   87.8896   15.7026 C.3     1  UNL1        0.1290
     19 C          63.1049   88.8657   16.6818 C.3     1  UNL1        0.0305
     20 C          63.3449   90.3361   16.5074 C.3     1  UNL1        0.0025
     21 C          64.1666   90.8303   15.3539 C.3     1  UNL1        0.0002
     22 C          64.7482   89.8541   14.3747 C.3     1  UNL1        0.0025
     23 C          64.5081   88.3838   14.5490 C.3     1  UNL1        0.0305
     24 O          62.8899   87.2504   16.8012 O.3     1  UNL1       -0.2256
     25 O          62.9120   85.7660   16.5866 O.3     1  UNL1       -0.2251
@<TRIPOS>BOND
     1    12    13    1
     2    13     6    1
     3     6     7   ar
     4     7     8   ar
     5     8     9   ar
     6     9    10   ar
     7    10     5    1
     8     5     1    1
     9     1     2   am
    10     2     3    2
    11     2    14    1
    12    14    15    1
    13    15    16    1
    14    15    17    1
    15    17    18    1
    16    18    19    1
    17    19    20    1
    18    20    21    1
    19    21    22    1
    20    22    23    1
    21    18    24    1
    22    24    25    1
    23    10    11   ar
    24    11     6   ar
    25    25    15    1
    26    23    18    1
    27     1     4    1
@<TRIPOS>MOLECULE
*****
 25 27 0 0 0
SMALL
GASTEIGER

@<TRIPOS>ATOM
      1 N          61.9788   89.3782   10.2761 N.am    1  UNL1       -0.3004
      2 C          60.7451   88.7667   10.8714 C.2     1  UNL1        0.2252
      3 O          60.0831   89.4121   12.0525 O.2     1  UNL1       -0.2750
      4 H          62.4133   88.9546    9.5009 H       1  UNL1        0.1497
      5 C          62.5503   90.6352   10.8621 C.3     1  UNL1        0.1164
      6 C          64.1686   89.3466   14.2490 C.ar    1  UNL1        0.1385
      7 C          65.1779   90.4251   14.5092 C.ar    1  UNL1        0.0369
      8 C          65.3115   91.5737   13.5538 C.ar    1  UNL1        0.0028
      9 C          64.4356   91.6437   12.3381 C.ar    1  UNL1       -0.0024
     10 C          63.4262   90.5651   12.0778 C.ar    1  UNL1        0.0004
     11 C          63.2926   89.4165   13.0332 C.ar    1  UNL1        0.0343
     12 C          64.5215   86.8347   14.8109 C.3     1  UNL1        0.2525
     13 O          64.0350   88.1980   15.2044 O.3     1  UNL1       -0.4714
     14 C          60.1735   87.5097   10.2854 C.3     1  UNL1        0.1154
     15 C          60.9817   86.6992    9.3159 C.3     1  UNL1        0.1377
     16 C          60.2374   87.4872    8.2791 C.3     1  UNL1        0.0335
     17 C          61.5571   86.0806   10.5554 C.3     1  UNL1        0.0613
     18 C          62.5654   85.0525   10.1353 C.3     1  UNL1        0.1290
     19 C          63.5390   84.0631    9.5669 C.3     1  UNL1        0.0305
     20 C          64.3561   83.2029   10.4847 C.3     1  UNL1        0.0025
     21 C          64.1994   83.3321   11.9709 C.3     1  UNL1        0.0002
     22 C          63.2257   84.3214   12.5393 C.3     1  UNL1        0.0025
     23 C          62.4087   85.1816   11.6214 C.3     1  UNL1        0.0305
     24 O          62.6131   85.0357    8.6361 O.3     1  UNL1       -0.2256
     25 O          61.6343   86.0534    8.1297 O.3     1  UNL1       -0.2251
@<TRIPOS>BOND
     1    12    13    1
     2    13     6    1
     3     6     7   ar
     4     7     8   ar
     5     8     9   ar
     6     9    10   ar
     7    10     5    1
     8     5     1    1
     9     1     2   am
    10     2     3    2
    11     2    14    1
    12    14    15    1
    13    15    16    1
    14    15    17    1
    15    17    18    1
    16    18    19    1
    17    19    20    1
    18    20    21    1
    19    21    22    1
    20    22    23    1
    21    18    24    1
    22    24    25    1
    23    10    11   ar
    24    11     6   ar
    25    25    15    1
    26    23    18    1
    27     1     4    1
@<TRIPOS>MOLECULE
*****
 25 27 0 0 0
SMALL
GASTEIGER

@<TRIPOS>ATOM
      1 N          63.6843   87.6447   13.0188 N.am    1  UNL1       -0.3004
      2 C          64.0461   87.5692   14.4726 C.2     1  UNL1        0.2252
      3 O          63.9092   88.7827   15.3435 O.2     1  UNL1       -0.2750
      4 H          63.7742   86.8482   12.4472 H       1  UNL1        0.1497
      5 C          63.1855   88.9337   12.4361 C.3     1  UNL1        0.1164
      6 C          60.8028   87.6143    9.5495 C.ar    1  UNL1        0.1385
      7 C          60.0878   88.8778    9.1725 C.ar    1  UNL1        0.0369
      8 C          60.4054   90.1599    9.8832 C.ar    1  UNL1        0.0028
      9 C          61.4379   90.1786   10.9711 C.ar    1  UNL1       -0.0024
     10 C          62.1530   88.9150   11.3482 C.ar    1  UNL1        0.0004
     11 C          61.8354   87.6329   10.6374 C.ar    1  UNL1        0.0343
     12 C          59.5756   86.3411    7.6461 C.3     1  UNL1        0.2525
     13 O          60.4853   86.3321    8.8388 O.3     1  UNL1       -0.4714
     14 C          64.5449   86.2801   15.0555 C.3     1  UNL1        0.1154
     15 C          63.5887   85.1533   15.3116 C.3     1  UNL1        0.1377
     16 C          63.3758   85.8415   16.6272 C.3     1  UNL1        0.0335
     17 C          64.0014   84.7006   13.9424 C.3     1  UNL1        0.0613
     18 C          63.2557   83.4378   13.6272 C.3     1  UNL1        0.1290
     19 C          62.4435   82.1888   13.4536 C.3     1  UNL1        0.0305
     20 C          62.5523   81.3935   12.1865 C.3     1  UNL1        0.0025
     21 C          63.4734   81.8471   11.0930 C.3     1  UNL1        0.0002
     22 C          64.2857   83.0961   11.2666 C.3     1  UNL1        0.0025
     23 C          64.1768   83.8914   12.5337 C.3     1  UNL1        0.0305
     24 O          62.3821   83.1100   14.8017 O.3     1  UNL1       -0.2256
     25 O          62.5879   84.1702   15.8427 O.3     1  UNL1       -0.2251
@<TRIPOS>BOND
     1    12    13    1
     2    13     6    1
     3     6     7   ar
     4     7     8   ar
     5     8     9   ar
     6     9    10   ar
     7    10     5    1
     8     5     1    1
     9     1     2   am
    10     2     3    2
    11     2    14    1
    12    14    15    1
    13    15    16    1
    14    15    17    1
    15    17    18    1
    16    18    19    1
    17    19    20    1
    18    20    21    1
    19    21    22    1
    20    22    23    1
    21    18    24    1
    22    24    25    1
    23    10    11   ar
    24    11     6   ar
    25    25    15    1
    26    23    18    1
    27     1     4    1
@<TRIPOS>MOLECULE
*****
 25 27 0 0 0
SMALL
GASTEIGER

@<TRIPOS>ATOM
      1 N          63.2509   84.3961   11.1746 N.am    1  UNL1       -0.3004
      2 C          64.2369   83.2784   11.3441 C.2     1  UNL1        0.2252
      3 O          64.7548   82.5463   10.1418 O.2     1  UNL1       -0.2750
      4 H          62.9109   84.8766   11.9638 H       1  UNL1        0.1497
      5 C          62.7828   84.7816    9.8027 C.3     1  UNL1        0.1164
      6 C          60.2580   87.7218   10.6571 C.ar    1  UNL1        0.1385
      7 C          59.6539   87.9777    9.3083 C.ar    1  UNL1        0.0369
      8 C          60.0928   87.1683    8.1242 C.ar    1  UNL1        0.0028
      9 C          61.1358   86.1029    8.2890 C.ar    1  UNL1       -0.0024
     10 C          61.7399   85.8470    9.6379 C.ar    1  UNL1        0.0004
     11 C          61.3010   86.6564   10.8220 C.ar    1  UNL1        0.0343
     12 C          59.7405   90.0258   11.7405 C.3     1  UNL1        0.2525
     13 O          59.8191   88.5313   11.8413 O.3     1  UNL1       -0.4714
     14 C          64.7050   82.8928   12.7162 C.3     1  UNL1        0.1154
     15 C          63.7200   82.7877   13.8425 C.3     1  UNL1        0.1377
     16 C          63.5443   81.3821   13.3489 C.3     1  UNL1        0.0335
     17 C          64.1016   84.2151   14.1006 C.3     1  UNL1        0.0613
     18 C          63.3158   84.6985   15.2834 C.3     1  UNL1        0.1290
     19 C          62.4656   85.0386   16.4715 C.3     1  UNL1        0.0305
     20 C          62.5349   86.4099   17.0753 C.3     1  UNL1        0.0025
     21 C          63.4544   87.4411   16.4911 C.3     1  UNL1        0.0002
     22 C          64.3045   87.1010   15.3031 C.3     1  UNL1        0.0025
     23 C          64.2352   85.7297   14.6993 C.3     1  UNL1        0.0305
     24 O          62.4485   83.5697   15.7563 O.3     1  UNL1       -0.2256
     25 O          62.6983   82.3887   14.8657 O.3     1  UNL1       -0.2251
@<TRIPOS>BOND
     1    12    13    1
     2    13     6    1
     3     6     7   ar
     4     7     8   ar
     5     8     9   ar
     6     9    10   ar
     7    10     5    1
     8     5     1    1
     9     1     2   am
    10     2     3    2
    11     2    14    1
    12    14    15    1
    13    15    16    1
    14    15    17    1
    15    17    18    1
    16    18    19    1
    17    19    20    1
    18    20    21    1
    19    21    22    1
    20    22    23    1
    21    18    24    1
    22    24    25    1
    23    10    11   ar
    24    11     6   ar
    25    25    15    1
    26    23    18    1
    27     1     4    1
@<TRIPOS>MOLECULE
*****
 25 27 0 0 0
SMALL
GASTEIGER

@<TRIPOS>ATOM
      1 N          64.3110   86.5912   14.7375 N.am    1  UNL1       -0.3004
      2 C          64.0335   88.0082   15.1442 C.2     1  UNL1        0.2252
      3 O          62.9707   88.3022   16.1610 O.2     1  UNL1       -0.2750
      4 H          65.0086   86.3982   14.0702 H       1  UNL1        0.1497
      5 C          63.5256   85.4684   15.3477 C.3     1  UNL1        0.1164
      6 C          63.8729   82.6727   12.5524 C.ar    1  UNL1        0.1385
      7 C          62.8783   81.6607   13.0385 C.ar    1  UNL1        0.0369
      8 C          62.0993   81.9179   14.2943 C.ar    1  UNL1        0.0028
      9 C          62.3151   83.1871   15.0640 C.ar    1  UNL1       -0.0024
     10 C          63.3098   84.1992   14.5780 C.ar    1  UNL1        0.0004
     11 C          64.0888   83.9420   13.3222 C.ar    1  UNL1        0.0343
     12 C          64.2596   83.0952   10.0183 C.3     1  UNL1        0.2525
     13 O          64.6519   82.4155   11.2966 O.3     1  UNL1       -0.4714
     14 C          64.8190   89.1311   14.5341 C.3     1  UNL1        0.1154
     15 C          64.1151   90.2008   13.7529 C.3     1  UNL1        0.1377
     16 C          64.7553   91.1265   14.7445 C.3     1  UNL1        0.0335
     17 C          63.6220   89.0515   12.9247 C.3     1  UNL1        0.0613
     18 C          62.7471   89.6044   11.8388 C.3     1  UNL1        0.1290
     19 C          61.9016   90.2993   10.8131 C.3     1  UNL1        0.0305
     20 C          61.1980   89.5013    9.7557 C.3     1  UNL1        0.0025
     21 C          61.3398   88.0084    9.7241 C.3     1  UNL1        0.0002
     22 C          62.1853   87.3134   10.7498 C.3     1  UNL1        0.0025
     23 C          62.8890   88.1114   11.8071 C.3     1  UNL1        0.0305
     24 O          62.6996   91.0954   11.9960 O.3     1  UNL1       -0.2256
     25 O          63.5450   91.4640   13.1790 O.3     1  UNL1       -0.2251
@<TRIPOS>BOND
     1    12    13    1
     2    13     6    1
     3     6     7   ar
     4     7     8   ar
     5     8     9   ar
     6     9    10   ar
     7    10     5    1
     8     5     1    1
     9     1     2   am
    10     2     3    2
    11     2    14    1
    12    14    15    1
    13    15    16    1
    14    15    17    1
    15    17    18    1
    16    18    19    1
    17    19    20    1
    18    20    21    1
    19    21    22    1
    20    22    23    1
    21    18    24    1
    22    24    25    1
    23    10    11   ar
    24    11     6   ar
    25    25    15    1
    26    23    18    1
    27     1     4    1
@<TRIPOS>MOLECULE
*****
 25 27 0 0 0
SMALL
GASTEIGER

@<TRIPOS>ATOM
      1 N          62.3174   87.3826   10.9831 N.am    1  UNL1       -0.3004
      2 C          61.2134   88.3638   11.2452 C.2     1  UNL1        0.2252
      3 O          59.7921   87.9919   10.9430 O.2     1  UNL1       -0.2750
      4 H          63.2503   87.6267   11.1814 H       1  UNL1        0.1497
      5 C          61.9999   86.0296   10.4187 C.3     1  UNL1        0.1164
      6 C          63.5090   83.2299   12.7924 C.ar    1  UNL1        0.1385
      7 C          64.2958   82.4172   11.8075 C.ar    1  UNL1        0.0369
      8 C          64.3175   82.8085   10.3596 C.ar    1  UNL1        0.0028
      9 C          63.5521   84.0127    9.8967 C.ar    1  UNL1       -0.0024
     10 C          62.7652   84.8254   10.8816 C.ar    1  UNL1        0.0004
     11 C          62.7436   84.4341   12.3295 C.ar    1  UNL1        0.0343
     12 C          62.7115   83.6592   15.2275 C.3     1  UNL1        0.2525
     13 O          63.4874   82.8385   14.2403 O.3     1  UNL1       -0.4714
     14 C          61.5309   89.7169   11.8096 C.3     1  UNL1        0.1154
     15 C          62.4739   90.6298   11.0836 C.3     1  UNL1        0.1377
     16 C          61.4983   90.4816    9.9538 C.3     1  UNL1        0.0335
     17 C          63.2523   90.5871   12.3650 C.3     1  UNL1        0.0613
     18 C          64.4727   91.4428   12.1949 C.3     1  UNL1        0.1290
     19 C          65.6421   92.3274   11.8790 C.3     1  UNL1        0.0305
     20 C          66.7007   92.5691   12.9138 C.3     1  UNL1        0.0025
     21 C          66.5899   91.9262   14.2645 C.3     1  UNL1        0.0002
     22 C          65.4205   91.0415   14.5804 C.3     1  UNL1        0.0025
     23 C          64.3619   90.7998   13.5456 C.3     1  UNL1        0.0305
     24 O          64.4484   92.0142   10.8082 O.3     1  UNL1       -0.2256
     25 O          63.2131   91.5117   10.1213 O.3     1  UNL1       -0.2251
@<TRIPOS>BOND
     1    12    13    1
     2    13     6    1
     3     6     7   ar
     4     7     8   ar
     5     8     9   ar
     6     9    10   ar
     7    10     5    1
     8     5     1    1
     9     1     2   am
    10     2     3    2
    11     2    14    1
    12    14    15    1
    13    15    16    1
    14    15    17    1
    15    17    18    1
    16    18    19    1
    17    19    20    1
    18    20    21    1
    19    21    22    1
    20    22    23    1
    21    18    24    1
    22    24    25    1
    23    10    11   ar
    24    11     6   ar
    25    25    15    1
    26    23    18    1
    27     1     4    1
