@<TRIPOS>MOLECULE
*****
 33 36 0 0 0
SMALL
GASTEIGER

@<TRIPOS>ATOM
      1 C          59.9039   86.3377    7.8024 C.3     1  UNL1        0.0437
      2 C          60.4803   87.0098    9.0131 C.3     1  UNL1        0.1352
      3 C          59.7265   88.1587    8.4116 C.3     1  UNL1        0.0437
      4 C          60.7949   88.0808   10.0150 C.3     1  UNL1        0.0642
      5 C          61.6631   87.7697   11.1979 C.3     1  UNL1        0.1019
      6 C          62.2167   86.3873   11.3790 C.ar    1  UNL1        0.0298
      7 C          63.0849   86.0761   12.5619 C.ar    1  UNL1        0.0034
      8 C          63.6385   84.6938   12.7429 C.ar    1  UNL1        0.0371
      9 C          63.3238   83.6227   11.7411 C.ar    1  UNL1        0.1498
     10 C          62.4556   83.9339   10.5582 C.ar    1  UNL1        0.0738
     11 C          61.9021   85.3162   10.3771 C.ar    1  UNL1        0.1387
     12 O          61.0338   85.6275    9.1942 O.3     1  UNL1       -0.4827
     13 N          61.9778   88.8407   12.1998 N.am    1  UNL1       -0.2863
     14 C          63.0362   89.8605   11.9000 C.2     1  UNL1        0.3047
     15 O          63.7799   89.8093   10.5984 O.2     1  UNL1       -0.2525
     16 N          63.3508   90.9316   12.9019 N.am    1  UNL1       -0.2683
     17 H          61.4897   88.8744   13.0541 H       1  UNL1        0.1512
     18 H          62.8627   90.9653   13.7562 H       1  UNL1        0.1564
     19 C          64.4092   91.9514   12.6021 C.ar    1  UNL1        0.0516
     20 C          64.5182   92.5368   11.2254 C.ar    1  UNL1        0.0147
     21 C          65.5765   93.5566   10.9256 C.ar    1  UNL1        0.0013
     22 C          66.5260   93.9910   12.0026 C.ar    1  UNL1        0.0016
     23 C          66.4170   93.4056   13.3793 C.ar    1  UNL1        0.0204
     24 C          67.3665   93.8399   14.4563 C.ar    1  UNL1        0.0989
     25 N          67.2576   93.2545   15.8330 N.ar    1  UNL1       -0.2423
     26 C          66.1992   92.2347   16.1328 C.ar    1  UNL1        0.0989
     27 C          65.2497   91.8003   15.0559 C.ar    1  UNL1        0.0219
     28 C          65.3587   92.3858   13.6791 C.ar    1  UNL1        0.0166
     29 O          63.8774   82.2404   11.9222 O.3     1  UNL1       -0.4044
     30 C          62.9896   81.1352   12.4124 C.3     1  UNL1        0.5753
     31 F          62.1018   80.0300   12.9026 F       1  UNL1       -0.1328
     32 F          63.1365   81.6403   13.8171 F       1  UNL1       -0.1328
     33 F          62.8428   80.6301   11.0076 F       1  UNL1       -0.1328
@<TRIPOS>BOND
     1     1     2    1
     2     2     3    1
     3     2     4    1
     4     4     5    1
     5     5    13    1
     6    13    14   am
     7    14    15    2
     8    14    16   am
     9    16    19    1
    10    19    20   ar
    11    20    21   ar
    12    21    22   ar
    13    22    23   ar
    14    23    24   ar
    15    24    25   ar
    16    25    26   ar
    17    26    27   ar
    18    27    28   ar
    19     5     6    1
    20     6     7   ar
    21     7     8   ar
    22     8     9   ar
    23     9    29    1
    24    29    30    1
    25    30    31    1
    26    30    32    1
    27    30    33    1
    28     9    10   ar
    29    10    11   ar
    30    11    12    1
    31    12     2    1
    32    28    19   ar
    33    11     6   ar
    34    28    23   ar
    35    13    17    1
    36    16    18    1
@<TRIPOS>MOLECULE
*****
 33 36 0 0 0
SMALL
GASTEIGER

@<TRIPOS>ATOM
      1 C          62.7858   79.6165   13.8061 C.3     1  UNL1        0.0437
      2 C          62.9427   80.7959   12.8927 C.3     1  UNL1        0.1352
      3 C          62.7259   79.7100   11.8809 C.3     1  UNL1        0.0437
      4 C          63.0243   81.5982   11.6279 C.3     1  UNL1        0.0642
      5 C          63.2682   83.0768   11.6921 C.3     1  UNL1        0.1019
      6 C          63.4306   83.7532   13.0211 C.ar    1  UNL1        0.0298
      7 C          63.6745   85.2318   13.0853 C.ar    1  UNL1        0.0034
      8 C          63.8369   85.9081   14.4143 C.ar    1  UNL1        0.0371
      9 C          63.7553   85.1058   15.6791 C.ar    1  UNL1        0.1498
     10 C          63.5113   83.6272   15.6149 C.ar    1  UNL1        0.0738
     11 C          63.3490   82.9509   14.2859 C.ar    1  UNL1        0.1387
     12 O          63.1050   81.4722   14.2217 O.3     1  UNL1       -0.4827
     13 N          63.3499   83.8791   10.4273 N.am    1  UNL1       -0.2863
     14 C          62.3463   84.9613   10.1596 C.2     1  UNL1        0.3047
     15 O          61.2611   85.2412   11.1566 O.2     1  UNL1       -0.2525
     16 N          62.4279   85.7636    8.8948 N.am    1  UNL1       -0.2683
     17 H          64.0621   83.6954    9.7730 H       1  UNL1        0.1512
     18 H          63.1402   85.5799    8.2404 H       1  UNL1        0.1564
     19 C          61.4243   86.8458    8.6270 C.ar    1  UNL1        0.0516
     20 C          60.3928   86.6632    7.5534 C.ar    1  UNL1        0.0147
     21 C          59.3892   87.7453    7.2857 C.ar    1  UNL1        0.0013
     22 C          59.4172   89.0102    8.0916 C.ar    1  UNL1        0.0016
     23 C          60.4486   89.1928    9.1652 C.ar    1  UNL1        0.0204
     24 C          60.4766   90.4576    9.9711 C.ar    1  UNL1        0.0989
     25 N          61.5080   90.6403   11.0447 N.ar    1  UNL1       -0.2423
     26 C          62.5117   89.5580   11.3124 C.ar    1  UNL1        0.0989
     27 C          62.4837   88.2932   10.5065 C.ar    1  UNL1        0.0219
     28 C          61.4522   88.1106    9.4329 C.ar    1  UNL1        0.0166
     29 O          63.9176   85.7822   17.0081 O.3     1  UNL1       -0.4044
     30 C          63.1586   87.0410   17.3067 C.3     1  UNL1        0.5753
     31 F          62.3995   88.2999   17.6053 F       1  UNL1       -0.1328
     32 F          62.4193   86.3349   18.4043 F       1  UNL1       -0.1328
     33 F          63.8978   87.7471   16.2090 F       1  UNL1       -0.1328
@<TRIPOS>BOND
     1     1     2    1
     2     2     3    1
     3     2     4    1
     4     4     5    1
     5     5    13    1
     6    13    14   am
     7    14    15    2
     8    14    16   am
     9    16    19    1
    10    19    20   ar
    11    20    21   ar
    12    21    22   ar
    13    22    23   ar
    14    23    24   ar
    15    24    25   ar
    16    25    26   ar
    17    26    27   ar
    18    27    28   ar
    19     5     6    1
    20     6     7   ar
    21     7     8   ar
    22     8     9   ar
    23     9    29    1
    24    29    30    1
    25    30    31    1
    26    30    32    1
    27    30    33    1
    28     9    10   ar
    29    10    11   ar
    30    11    12    1
    31    12     2    1
    32    28    19   ar
    33    11     6   ar
    34    28    23   ar
    35    13    17    1
    36    16    18    1
@<TRIPOS>MOLECULE
*****
 33 36 0 0 0
SMALL
GASTEIGER

@<TRIPOS>ATOM
      1 C          59.7246   86.5211    7.4591 C.3     1  UNL1        0.0437
      2 C          60.1646   87.2401    8.6998 C.3     1  UNL1        0.1352
      3 C          59.3719   88.3270    8.0363 C.3     1  UNL1        0.0437
      4 C          60.3293   88.3365    9.7102 C.3     1  UNL1        0.0642
      5 C          61.1339   88.0963   10.9531 C.3     1  UNL1        0.1019
      6 C          61.7738   86.7597   11.1858 C.ar    1  UNL1        0.0298
      7 C          62.5784   86.5195   12.4287 C.ar    1  UNL1        0.0034
      8 C          63.2182   85.1830   12.6613 C.ar    1  UNL1        0.0371
      9 C          63.0535   84.0866   11.6510 C.ar    1  UNL1        0.1498
     10 C          62.2490   84.3267   10.4081 C.ar    1  UNL1        0.0738
     11 C          61.6091   85.6633   10.1755 C.ar    1  UNL1        0.1387
     12 O          60.8045   85.9035    8.9325 O.3     1  UNL1       -0.4827
     13 N          61.2986   89.1927   11.9634 N.am    1  UNL1       -0.2863
     14 C          62.6676   89.7102   12.2922 C.2     1  UNL1        0.3047
     15 O          63.8719   89.1313   11.6106 O.2     1  UNL1       -0.2525
     16 N          62.8323   90.8066   13.3025 N.am    1  UNL1       -0.2683
     17 H          60.5082   89.5727   12.4108 H       1  UNL1        0.1512
     18 H          62.0419   91.1866   13.7499 H       1  UNL1        0.1564
     19 C          64.2013   91.3241   13.6313 C.ar    1  UNL1        0.0516
     20 C          64.7956   91.0664   14.9842 C.ar    1  UNL1        0.0147
     21 C          66.1646   91.5838   15.3129 C.ar    1  UNL1        0.0013
     22 C          66.9393   92.3590   14.2886 C.ar    1  UNL1        0.0016
     23 C          66.3450   92.6167   12.9358 C.ar    1  UNL1        0.0204
     24 C          67.1197   93.3918   11.9116 C.ar    1  UNL1        0.0989
     25 N          66.5254   93.6495   10.5587 N.ar    1  UNL1       -0.2423
     26 C          65.1563   93.1321   10.2299 C.ar    1  UNL1        0.0989
     27 C          64.3817   92.3569   11.2541 C.ar    1  UNL1        0.0219
     28 C          64.9760   92.0992   12.6071 C.ar    1  UNL1        0.0166
     29 O          63.6934   82.7500   11.8837 O.3     1  UNL1       -0.4044
     30 C          63.4291   81.6169   10.9370 C.3     1  UNL1        0.5753
     31 F          63.1648   80.4838    9.9902 F       1  UNL1       -0.1328
     32 F          64.4442   82.1759    9.9846 F       1  UNL1       -0.1328
     33 F          62.4140   81.0580   11.8893 F       1  UNL1       -0.1328
@<TRIPOS>BOND
     1     1     2    1
     2     2     3    1
     3     2     4    1
     4     4     5    1
     5     5    13    1
     6    13    14   am
     7    14    15    2
     8    14    16   am
     9    16    19    1
    10    19    20   ar
    11    20    21   ar
    12    21    22   ar
    13    22    23   ar
    14    23    24   ar
    15    24    25   ar
    16    25    26   ar
    17    26    27   ar
    18    27    28   ar
    19     5     6    1
    20     6     7   ar
    21     7     8   ar
    22     8     9   ar
    23     9    29    1
    24    29    30    1
    25    30    31    1
    26    30    32    1
    27    30    33    1
    28     9    10   ar
    29    10    11   ar
    30    11    12    1
    31    12     2    1
    32    28    19   ar
    33    11     6   ar
    34    28    23   ar
    35    13    17    1
    36    16    18    1
@<TRIPOS>MOLECULE
*****
 33 36 0 0 0
SMALL
GASTEIGER

@<TRIPOS>ATOM
      1 C          62.0461   90.5450   10.0047 C.3     1  UNL1        0.0437
      2 C          62.5438   89.6558   11.1054 C.3     1  UNL1        0.1352
      3 C          61.6265   88.7040   10.3964 C.3     1  UNL1        0.0437
      4 C          62.7230   88.4361   11.9598 C.3     1  UNL1        0.0642
      5 C          63.6466   88.4769   13.1410 C.3     1  UNL1        0.1019
      6 C          64.3911   89.7375   13.4678 C.ar    1  UNL1        0.0298
      7 C          65.3147   89.7783   14.6490 C.ar    1  UNL1        0.0034
      8 C          66.0591   91.0389   14.9757 C.ar    1  UNL1        0.0371
      9 C          65.8799   92.2586   14.1212 C.ar    1  UNL1        0.1498
     10 C          64.9563   92.2178   12.9400 C.ar    1  UNL1        0.0738
     11 C          64.2119   90.9572   12.6133 C.ar    1  UNL1        0.1387
     12 O          63.2883   90.9163   11.4321 O.3     1  UNL1       -0.4827
     13 N          63.8258   87.2571   13.9955 N.am    1  UNL1       -0.2863
     14 C          63.2796   85.9362   13.5410 C.2     1  UNL1        0.3047
     15 O          62.5541   85.8349   12.2319 O.2     1  UNL1       -0.2525
     16 N          63.4587   84.7164   14.3955 N.am    1  UNL1       -0.2683
     17 H          64.3019   87.3236   14.8547 H       1  UNL1        0.1512
     18 H          63.9348   84.7829   15.2546 H       1  UNL1        0.1564
     19 C          62.9125   83.3954   13.9409 C.ar    1  UNL1        0.0516
     20 C          61.9522   82.6411   14.8120 C.ar    1  UNL1        0.0147
     21 C          61.4060   81.3202   14.3574 C.ar    1  UNL1        0.0013
     22 C          61.8201   80.7535   13.0317 C.ar    1  UNL1        0.0016
     23 C          62.7804   81.5078   12.1606 C.ar    1  UNL1        0.0204
     24 C          63.1945   80.9411   10.8349 C.ar    1  UNL1        0.0989
     25 N          64.1547   81.6954    9.9638 N.ar    1  UNL1       -0.2423
     26 C          64.7010   83.0165   10.4184 C.ar    1  UNL1        0.0989
     27 C          64.2869   83.5831   11.7441 C.ar    1  UNL1        0.0219
     28 C          63.3266   82.8287   12.6152 C.ar    1  UNL1        0.0166
     29 O          66.6244   93.5192   14.4480 O.3     1  UNL1       -0.4044
     30 C          68.0306   93.4471   14.9651 C.3     1  UNL1        0.5753
     31 F          69.4368   93.3751   15.4824 F       1  UNL1       -0.1328
     32 F          67.6055   94.1521   16.2190 F       1  UNL1       -0.1328
     33 F          68.4556   92.7422   13.7112 F       1  UNL1       -0.1328
@<TRIPOS>BOND
     1     1     2    1
     2     2     3    1
     3     2     4    1
     4     4     5    1
     5     5    13    1
     6    13    14   am
     7    14    15    2
     8    14    16   am
     9    16    19    1
    10    19    20   ar
    11    20    21   ar
    12    21    22   ar
    13    22    23   ar
    14    23    24   ar
    15    24    25   ar
    16    25    26   ar
    17    26    27   ar
    18    27    28   ar
    19     5     6    1
    20     6     7   ar
    21     7     8   ar
    22     8     9   ar
    23     9    29    1
    24    29    30    1
    25    30    31    1
    26    30    32    1
    27    30    33    1
    28     9    10   ar
    29    10    11   ar
    30    11    12    1
    31    12     2    1
    32    28    19   ar
    33    11     6   ar
    34    28    23   ar
    35    13    17    1
    36    16    18    1
@<TRIPOS>MOLECULE
*****
 33 36 0 0 0
SMALL
GASTEIGER

@<TRIPOS>ATOM
      1 C          60.3641   87.7294    9.6851 C.3     1  UNL1        0.0437
      2 C          61.3413   88.4980   10.5242 C.3     1  UNL1        0.1352
      3 C          60.8104   89.6053    9.6628 C.3     1  UNL1        0.0437
      4 C          62.1342   89.6512   11.0642 C.3     1  UNL1        0.0642
      5 C          63.1186   89.4302   12.1741 C.3     1  UNL1        0.1019
      6 C          63.3102   88.0560   12.7442 C.ar    1  UNL1        0.0298
      7 C          64.2946   87.8350   13.8542 C.ar    1  UNL1        0.0034
      8 C          64.4861   86.4608   14.4242 C.ar    1  UNL1        0.0371
      9 C          63.6932   85.3077   13.8843 C.ar    1  UNL1        0.1498
     10 C          62.7088   85.5287   12.7743 C.ar    1  UNL1        0.0738
     11 C          62.5173   86.9028   12.2043 C.ar    1  UNL1        0.1387
     12 O          61.5329   87.1239   11.0942 O.3     1  UNL1       -0.4827
     13 N          63.9115   90.5834   12.7141 N.am    1  UNL1       -0.2863
     14 C          64.4585   91.6207   11.7789 C.2     1  UNL1        0.3047
     15 O          64.2126   91.5049   10.3037 O.2     1  UNL1       -0.2525
     16 N          65.2514   92.7739   12.3188 N.am    1  UNL1       -0.2683
     17 H          64.0729   90.6594   13.6823 H       1  UNL1        0.1512
     18 H          65.4128   92.8499   13.2870 H       1  UNL1        0.1564
     19 C          65.7984   93.8113   11.3835 C.ar    1  UNL1        0.0516
     20 C          65.3290   95.2325   11.4825 C.ar    1  UNL1        0.0147
     21 C          65.8761   96.2698   10.5472 C.ar    1  UNL1        0.0013
     22 C          66.8924   95.8859    9.5130 C.ar    1  UNL1        0.0016
     23 C          67.3618   94.4647    9.4141 C.ar    1  UNL1        0.0204
     24 C          68.3782   94.0808    8.3799 C.ar    1  UNL1        0.0989
     25 N          68.8475   92.6596    8.2809 N.ar    1  UNL1       -0.2423
     26 C          68.3005   91.6222    9.2162 C.ar    1  UNL1        0.0989
     27 C          67.2841   92.0061   10.2504 C.ar    1  UNL1        0.0219
     28 C          66.8148   93.4274   10.3493 C.ar    1  UNL1        0.0166
     29 O          63.8848   83.9335   14.4544 O.3     1  UNL1       -0.4044
     30 C          63.1916   82.7591   13.8298 C.3     1  UNL1        0.5753
     31 F          62.4983   81.5846   13.2052 F       1  UNL1       -0.1328
     32 F          62.0332   82.9458   14.7642 F       1  UNL1       -0.1328
     33 F          64.3499   82.5723   12.8953 F       1  UNL1       -0.1328
@<TRIPOS>BOND
     1     1     2    1
     2     2     3    1
     3     2     4    1
     4     4     5    1
     5     5    13    1
     6    13    14   am
     7    14    15    2
     8    14    16   am
     9    16    19    1
    10    19    20   ar
    11    20    21   ar
    12    21    22   ar
    13    22    23   ar
    14    23    24   ar
    15    24    25   ar
    16    25    26   ar
    17    26    27   ar
    18    27    28   ar
    19     5     6    1
    20     6     7   ar
    21     7     8   ar
    22     8     9   ar
    23     9    29    1
    24    29    30    1
    25    30    31    1
    26    30    32    1
    27    30    33    1
    28     9    10   ar
    29    10    11   ar
    30    11    12    1
    31    12     2    1
    32    28    19   ar
    33    11     6   ar
    34    28    23   ar
    35    13    17    1
    36    16    18    1
@<TRIPOS>MOLECULE
*****
 33 36 0 0 0
SMALL
GASTEIGER

@<TRIPOS>ATOM
      1 C          62.1185   84.0635    9.6699 C.3     1  UNL1        0.0437
      2 C          62.1332   85.3928   10.3647 C.3     1  UNL1        0.1352
      3 C          62.9351   84.5811   11.3383 C.3     1  UNL1        0.0437
      4 C          62.4264   86.4402   11.3976 C.3     1  UNL1        0.0642
      5 C          61.9126   87.8376   11.2156 C.3     1  UNL1        0.1019
      6 C          61.1056   88.1877   10.0006 C.ar    1  UNL1        0.0298
      7 C          60.5918   89.5851    9.8186 C.ar    1  UNL1        0.0034
      8 C          59.7847   89.9351    8.6036 C.ar    1  UNL1        0.0371
      9 C          59.4915   88.8877    7.5707 C.ar    1  UNL1        0.1498
     10 C          60.0053   87.4903    7.7527 C.ar    1  UNL1        0.0738
     11 C          60.8123   87.1403    8.9677 C.ar    1  UNL1        0.1387
     12 O          61.3262   85.7428    9.1497 O.3     1  UNL1       -0.4827
     13 N          62.2059   88.8850   12.2485 N.am    1  UNL1       -0.2863
     14 C          63.2296   89.9457   11.9715 C.2     1  UNL1        0.3047
     15 O          63.9603   89.9590   10.6614 O.2     1  UNL1       -0.2525
     16 N          63.5229   90.9931   13.0044 N.am    1  UNL1       -0.2683
     17 H          61.7264   88.8763   13.1083 H       1  UNL1        0.1512
     18 H          63.0434   90.9844   13.8642 H       1  UNL1        0.1564
     19 C          64.5467   92.0538   12.7273 C.ar    1  UNL1        0.0516
     20 C          64.6432   92.6642   11.3605 C.ar    1  UNL1        0.0147
     21 C          65.6670   93.7249   11.0835 C.ar    1  UNL1        0.0013
     22 C          66.5943   94.1751   12.1732 C.ar    1  UNL1        0.0016
     23 C          66.4978   93.5647   13.5399 C.ar    1  UNL1        0.0204
     24 C          67.4251   94.0150   14.6296 C.ar    1  UNL1        0.0989
     25 N          67.3286   93.4045   15.9964 N.ar    1  UNL1       -0.2423
     26 C          66.3047   92.3438   16.2735 C.ar    1  UNL1        0.0989
     27 C          65.3775   91.8936   15.1838 C.ar    1  UNL1        0.0219
     28 C          65.4740   92.5041   13.8170 C.ar    1  UNL1        0.0166
     29 O          58.6844   89.2378    6.3557 O.3     1  UNL1       -0.4044
     30 C          58.9563   90.5147    5.6171 C.3     1  UNL1        0.5753
     31 F          59.2281   91.7916    4.8784 F       1  UNL1       -0.1328
     32 F          57.4927   90.8421    5.6444 F       1  UNL1       -0.1328
     33 F          60.4198   90.1872    5.5898 F       1  UNL1       -0.1328
@<TRIPOS>BOND
     1     1     2    1
     2     2     3    1
     3     2     4    1
     4     4     5    1
     5     5    13    1
     6    13    14   am
     7    14    15    2
     8    14    16   am
     9    16    19    1
    10    19    20   ar
    11    20    21   ar
    12    21    22   ar
    13    22    23   ar
    14    23    24   ar
    15    24    25   ar
    16    25    26   ar
    17    26    27   ar
    18    27    28   ar
    19     5     6    1
    20     6     7   ar
    21     7     8   ar
    22     8     9   ar
    23     9    29    1
    24    29    30    1
    25    30    31    1
    26    30    32    1
    27    30    33    1
    28     9    10   ar
    29    10    11   ar
    30    11    12    1
    31    12     2    1
    32    28    19   ar
    33    11     6   ar
    34    28    23   ar
    35    13    17    1
    36    16    18    1
@<TRIPOS>MOLECULE
*****
 33 36 0 0 0
SMALL
GASTEIGER

@<TRIPOS>ATOM
      1 C          62.1995   84.3032   10.1508 C.3     1  UNL1        0.0437
      2 C          62.0262   85.6533   10.7809 C.3     1  UNL1        0.1352
      3 C          62.7358   84.9368   11.8913 C.3     1  UNL1        0.0437
      4 C          62.0993   86.7546   11.7967 C.3     1  UNL1        0.0642
      5 C          61.5230   88.1035   11.4832 C.3     1  UNL1        0.1019
      6 C          60.8736   88.3511   10.1539 C.ar    1  UNL1        0.0298
      7 C          60.2973   89.7000    9.8404 C.ar    1  UNL1        0.0034
      8 C          59.6478   89.9476    8.5112 C.ar    1  UNL1        0.0371
      9 C          59.5747   88.8463    7.4954 C.ar    1  UNL1        0.1498
     10 C          60.1510   87.4974    7.8089 C.ar    1  UNL1        0.0738
     11 C          60.8004   87.2498    9.1381 C.ar    1  UNL1        0.1387
     12 O          61.3768   85.9008    9.4517 O.3     1  UNL1       -0.4827
     13 N          61.5961   89.2048   12.4989 N.am    1  UNL1       -0.2863
     14 C          62.9186   89.8263   12.8374 C.2     1  UNL1        0.3047
     15 O          64.1681   89.3465   12.1601 O.2     1  UNL1       -0.2525
     16 N          62.9918   90.9276   13.8532 N.am    1  UNL1       -0.2683
     17 H          60.7761   89.5197   12.9435 H       1  UNL1        0.1512
     18 H          62.1717   91.2425   14.2977 H       1  UNL1        0.1564
     19 C          64.3144   91.5492   14.1916 C.ar    1  UNL1        0.0516
     20 C          64.8043   91.5448   15.6093 C.ar    1  UNL1        0.0147
     21 C          66.1268   92.1663   15.9477 C.ar    1  UNL1        0.0013
     22 C          66.9595   92.7922   14.8684 C.ar    1  UNL1        0.0016
     23 C          66.4696   92.7966   13.4507 C.ar    1  UNL1        0.0204
     24 C          67.3022   93.4225   12.3714 C.ar    1  UNL1        0.0989
     25 N          66.8123   93.4269   10.9537 N.ar    1  UNL1       -0.2423
     26 C          65.4897   92.8054   10.6152 C.ar    1  UNL1        0.0989
     27 C          64.6571   92.1795   11.6945 C.ar    1  UNL1        0.0219
     28 C          65.1470   92.1751   13.1123 C.ar    1  UNL1        0.0166
     29 O          58.9253   89.0939    6.1661 O.3     1  UNL1       -0.4044
     30 C          58.9278   90.4727    5.5754 C.3     1  UNL1        0.5753
     31 F          58.9303   91.8515    4.9846 F       1  UNL1       -0.1328
     32 F          57.4367   90.5392    5.7241 F       1  UNL1       -0.1328
     33 F          60.4189   90.4062    5.4266 F       1  UNL1       -0.1328
@<TRIPOS>BOND
     1     1     2    1
     2     2     3    1
     3     2     4    1
     4     4     5    1
     5     5    13    1
     6    13    14   am
     7    14    15    2
     8    14    16   am
     9    16    19    1
    10    19    20   ar
    11    20    21   ar
    12    21    22   ar
    13    22    23   ar
    14    23    24   ar
    15    24    25   ar
    16    25    26   ar
    17    26    27   ar
    18    27    28   ar
    19     5     6    1
    20     6     7   ar
    21     7     8   ar
    22     8     9   ar
    23     9    29    1
    24    29    30    1
    25    30    31    1
    26    30    32    1
    27    30    33    1
    28     9    10   ar
    29    10    11   ar
    30    11    12    1
    31    12     2    1
    32    28    19   ar
    33    11     6   ar
    34    28    23   ar
    35    13    17    1
    36    16    18    1
@<TRIPOS>MOLECULE
*****
 33 36 0 0 0
SMALL
GASTEIGER

@<TRIPOS>ATOM
      1 C          63.7412   83.4564   13.0725 C.3     1  UNL1        0.0437
      2 C          63.4622   84.9194   12.8942 C.3     1  UNL1        0.1352
      3 C          64.0762   84.9362   14.2627 C.3     1  UNL1        0.0437
      4 C          63.3965   86.3882   13.1912 C.3     1  UNL1        0.0642
      5 C          62.8137   87.3322   12.1816 C.3     1  UNL1        0.1019
      6 C          62.2966   86.8073   10.8750 C.ar    1  UNL1        0.0298
      7 C          61.7139   87.7512    9.8654 C.ar    1  UNL1        0.0034
      8 C          61.1968   87.2263    8.5589 C.ar    1  UNL1        0.0371
      9 C          61.2625   85.7575    8.2619 C.ar    1  UNL1        0.1498
     10 C          61.8453   84.8135    9.2715 C.ar    1  UNL1        0.0738
     11 C          62.3623   85.3384   10.5780 C.ar    1  UNL1        0.1387
     12 O          62.9452   84.3945   11.5877 O.3     1  UNL1       -0.4827
     13 N          62.7480   88.8010   12.4786 N.am    1  UNL1       -0.2863
     14 C          63.6671   89.4014   13.5007 C.2     1  UNL1        0.3047
     15 O          64.6519   88.5329   14.2260 O.2     1  UNL1       -0.2525
     16 N          63.6014   90.8702   13.7977 N.am    1  UNL1       -0.2683
     17 H          62.1017   89.3710   12.0026 H       1  UNL1        0.1512
     18 H          62.9550   91.4402   13.3217 H       1  UNL1        0.1564
     19 C          64.5205   91.4706   14.8199 C.ar    1  UNL1        0.0516
     20 C          64.0233   91.7403   16.2091 C.ar    1  UNL1        0.0147
     21 C          64.9424   92.3406   17.2313 C.ar    1  UNL1        0.0013
     22 C          66.3587   92.6712   16.8642 C.ar    1  UNL1        0.0016
     23 C          66.8559   92.4015   15.4749 C.ar    1  UNL1        0.0204
     24 C          68.2722   92.7321   15.1079 C.ar    1  UNL1        0.0989
     25 N          68.7694   92.4624   13.7186 N.ar    1  UNL1       -0.2423
     26 C          67.8503   91.8621   12.6964 C.ar    1  UNL1        0.0989
     27 C          66.4340   91.5315   13.0635 C.ar    1  UNL1        0.0219
     28 C          65.9368   91.8012   14.4528 C.ar    1  UNL1        0.0166
     29 O          60.7454   85.2326    6.9553 O.3     1  UNL1       -0.4044
     30 C          61.6544   84.4628    6.0438 C.3     1  UNL1        0.5753
     31 F          62.5636   83.6930    5.1322 F       1  UNL1       -0.1328
     32 F          62.8373   85.1944    6.6055 F       1  UNL1       -0.1328
     33 F          60.4716   83.7312    5.4820 F       1  UNL1       -0.1328
@<TRIPOS>BOND
     1     1     2    1
     2     2     3    1
     3     2     4    1
     4     4     5    1
     5     5    13    1
     6    13    14   am
     7    14    15    2
     8    14    16   am
     9    16    19    1
    10    19    20   ar
    11    20    21   ar
    12    21    22   ar
    13    22    23   ar
    14    23    24   ar
    15    24    25   ar
    16    25    26   ar
    17    26    27   ar
    18    27    28   ar
    19     5     6    1
    20     6     7   ar
    21     7     8   ar
    22     8     9   ar
    23     9    29    1
    24    29    30    1
    25    30    31    1
    26    30    32    1
    27    30    33    1
    28     9    10   ar
    29    10    11   ar
    30    11    12    1
    31    12     2    1
    32    28    19   ar
    33    11     6   ar
    34    28    23   ar
    35    13    17    1
    36    16    18    1
@<TRIPOS>MOLECULE
*****
 33 36 0 0 0
SMALL
GASTEIGER

@<TRIPOS>ATOM
      1 C          62.0438   90.9824   12.0750 C.3     1  UNL1        0.0437
      2 C          62.2439   89.6151   11.4915 C.3     1  UNL1        0.1352
      3 C          63.1957   89.5463   12.6488 C.3     1  UNL1        0.0437
      4 C          62.7747   88.2240   11.3099 C.3     1  UNL1        0.0642
      5 C          62.2841   87.3764   10.1737 C.3     1  UNL1        0.1019
      6 C          61.2628   87.9201    9.2190 C.ar    1  UNL1        0.0298
      7 C          60.7722   87.0725    8.0828 C.ar    1  UNL1        0.0034
      8 C          59.7509   87.6162    7.1282 C.ar    1  UNL1        0.0371
      9 C          59.2202   89.0074    7.3097 C.ar    1  UNL1        0.1498
     10 C          59.7107   89.8549    8.4459 C.ar    1  UNL1        0.0738
     11 C          60.7320   89.3112    9.4006 C.ar    1  UNL1        0.1387
     12 O          61.2226   90.1588   10.5369 O.3     1  UNL1       -0.4827
     13 N          62.8148   85.9853    9.9922 N.am    1  UNL1       -0.2863
     14 C          62.5664   84.9446   11.0435 C.2     1  UNL1        0.3047
     15 O          61.7872   85.2951   12.2764 O.2     1  UNL1       -0.2525
     16 N          63.0971   83.5534   10.8619 N.am    1  UNL1       -0.2683
     17 H          63.3262   85.7552    9.1830 H       1  UNL1        0.1512
     18 H          63.6085   83.3234   10.0527 H       1  UNL1        0.1564
     19 C          62.8486   82.5127   11.9133 C.ar    1  UNL1        0.0516
     20 C          62.6603   82.9221   13.3440 C.ar    1  UNL1        0.0147
     21 C          62.4118   81.8814   14.3953 C.ar    1  UNL1        0.0013
     22 C          62.3517   80.4314   14.0159 C.ar    1  UNL1        0.0016
     23 C          62.5401   80.0221   12.5852 C.ar    1  UNL1        0.0204
     24 C          62.4800   78.5721   12.2058 C.ar    1  UNL1        0.0989
     25 N          62.6683   78.1628   10.7751 N.ar    1  UNL1       -0.2423
     26 C          62.9168   79.2035    9.7237 C.ar    1  UNL1        0.0989
     27 C          62.9769   80.6535   10.1031 C.ar    1  UNL1        0.0219
     28 C          62.7885   81.0628   11.5339 C.ar    1  UNL1        0.0166
     29 O          58.1988   89.5510    6.3550 O.3     1  UNL1       -0.4044
     30 C          58.5547   90.6875    5.4431 C.3     1  UNL1        0.5753
     31 F          58.9106   91.8240    4.5311 F       1  UNL1       -0.1328
     32 F          59.9809   90.2233    5.4211 F       1  UNL1       -0.1328
     33 F          57.1286   91.1517    5.4651 F       1  UNL1       -0.1328
@<TRIPOS>BOND
     1     1     2    1
     2     2     3    1
     3     2     4    1
     4     4     5    1
     5     5    13    1
     6    13    14   am
     7    14    15    2
     8    14    16   am
     9    16    19    1
    10    19    20   ar
    11    20    21   ar
    12    21    22   ar
    13    22    23   ar
    14    23    24   ar
    15    24    25   ar
    16    25    26   ar
    17    26    27   ar
    18    27    28   ar
    19     5     6    1
    20     6     7   ar
    21     7     8   ar
    22     8     9   ar
    23     9    29    1
    24    29    30    1
    25    30    31    1
    26    30    32    1
    27    30    33    1
    28     9    10   ar
    29    10    11   ar
    30    11    12    1
    31    12     2    1
    32    28    19   ar
    33    11     6   ar
    34    28    23   ar
    35    13    17    1
    36    16    18    1
