@<TRIPOS>MOLECULE
*****
 32 35 0 0 0
SMALL
GASTEIGER

@<TRIPOS>ATOM
      1 N          63.4642   90.5811   11.8459 N.ar    1  UNL1       -0.2880
      2 C          64.4034   91.6115   11.2925 C.ar    1  UNL1        0.0847
      3 C          65.0922   92.2781   12.4462 C.ar    1  UNL1        0.0594
      4 C          64.5787   91.6597   13.7127 C.ar    1  UNL1        0.0391
      5 C          64.8974   91.9161   15.1559 C.ar    1  UNL1        0.0047
      6 C          64.2099   91.1237   16.2280 C.ar    1  UNL1        0.0208
      7 C          63.2037   90.0749   15.8569 C.ar    1  UNL1        0.1005
      8 N          62.8851   89.8185   14.4138 N.ar    1  UNL1       -0.2264
      9 C          63.5726   90.6109   13.3417 C.ar    1  UNL1        0.1478
     10 C          60.7908   87.8754    9.4412 C.ar    1  UNL1        0.0163
     11 C          60.7703   89.3560    9.2017 C.ar    1  UNL1        0.0028
     12 C          61.6614   90.2579   10.0033 C.ar    1  UNL1        0.0199
     13 C          62.5731   89.6792   11.0443 C.ar    1  UNL1        0.0927
     14 C          62.5937   88.1985   11.2838 C.ar    1  UNL1        0.1562
     15 F          63.5054   87.6198   12.3249 F       1  UNL1       -0.2026
     16 C          61.7025   87.2967   10.4822 C.ar    1  UNL1        0.0323
     17 O          58.4906   87.3885    8.3360 O.co2   1  UNL1       -0.5446
     18 C          59.8997   86.9736    8.6396 C.2     1  UNL1        0.0729
     19 O          60.4177   85.6569    8.1416 O.co2   1  UNL1       -0.5446
     20 C          66.1149   93.3711   12.3504 C.2     1  UNL1        0.1979
     21 O          66.3656   94.2689   13.5255 O.2     1  UNL1       -0.2865
     22 C          66.8871   93.5665   11.0792 C.ar    1  UNL1        0.0535
     23 C          67.8874   92.5371   10.6436 C.ar    1  UNL1        0.0607
     24 CL         68.1155   91.3124   11.4792 Cl      1  UNL1       -0.0821
     25 C          68.6595   92.7323    9.3726 C.ar    1  UNL1        0.0115
     26 C          68.4313   93.9570    8.5370 C.ar    1  UNL1        0.0008
     27 C          67.4310   94.9864    8.9726 C.ar    1  UNL1        0.0040
     28 C          66.6588   94.7911   10.2437 C.ar    1  UNL1        0.0753
     29 C          65.6585   95.8205   10.6793 C.3     1  UNL1        0.4187
     30 F          64.6582   96.8499   11.1149 F       1  UNL1       -0.1659
     31 F          66.7472   96.5854   11.3719 F       1  UNL1       -0.1659
     32 F          64.5698   95.0557    9.9867 F       1  UNL1       -0.1659
@<TRIPOS>UNITY_ATOM_ATTR
17 1
charge -1
@<TRIPOS>BOND
     1    17    18   ar
     2    18    19   ar
     3    18    10    1
     4    10    11   ar
     5    11    12   ar
     6    12    13   ar
     7    13     1    1
     8     1     2   ar
     9     2     3   ar
    10     3    20    1
    11    20    21    2
    12    20    22    1
    13    22    23   ar
    14    23    24    1
    15    23    25   ar
    16    25    26   ar
    17    26    27   ar
    18    27    28   ar
    19    28    29    1
    20    29    30    1
    21    29    31    1
    22    29    32    1
    23     3     4   ar
    24     4     5   ar
    25     5     6   ar
    26     6     7   ar
    27     7     8   ar
    28     8     9   ar
    29    13    14   ar
    30    14    15    1
    31    14    16   ar
    32    16    10   ar
    33     9     1   ar
    34    28    22   ar
    35     9     4   ar
@<TRIPOS>MOLECULE
*****
 32 35 0 0 0
SMALL
GASTEIGER

@<TRIPOS>ATOM
      1 N          62.3577   87.2533   11.3637 N.ar    1  UNL1       -0.2880
      2 C          62.6864   85.8103   11.6079 C.ar    1  UNL1        0.0847
      3 C          63.5007   85.7267   12.8648 C.ar    1  UNL1        0.0594
      4 C          63.6752   87.1180   13.3975 C.ar    1  UNL1        0.0391
      5 C          64.3861   87.6476   14.6075 C.ar    1  UNL1        0.0047
      6 C          64.3906   89.1208   14.8897 C.ar    1  UNL1        0.0208
      7 C          63.6842   90.0643   13.9619 C.ar    1  UNL1        0.1005
      8 N          62.9733   89.5347   12.7520 N.ar    1  UNL1       -0.2264
      9 C          62.9688   88.0615   12.4698 C.ar    1  UNL1        0.1478
     10 C          59.9593   88.8734    7.9180 C.ar    1  UNL1        0.0163
     11 C          60.5954   89.8148    8.8972 C.ar    1  UNL1        0.0028
     12 C          61.3949   89.2747   10.0458 C.ar    1  UNL1        0.0199
     13 C          61.5582   87.7934   10.2152 C.ar    1  UNL1        0.0927
     14 C          60.9220   86.8519    9.2358 C.ar    1  UNL1        0.1562
     15 F          61.0853   85.3705    9.4051 F       1  UNL1       -0.2026
     16 C          60.1225   87.3919    8.0872 C.ar    1  UNL1        0.0323
     17 O          57.6770   89.1929    6.7185 O.co2   1  UNL1       -0.5446
     18 C          59.1598   89.4134    6.7694 C.2     1  UNL1        0.0729
     19 O          59.8432   90.1739    5.6718 O.co2   1  UNL1       -0.5446
     20 C          64.0449   84.4720   13.4810 C.2     1  UNL1        0.1979
     21 O          65.4132   84.4705   14.0953 O.2     1  UNL1       -0.2865
     22 C          63.2206   83.2187   13.4828 C.ar    1  UNL1        0.0535
     23 C          62.3192   82.9155   14.6429 C.ar    1  UNL1        0.0607
     24 CL         62.2422   83.8656   15.8011 Cl      1  UNL1       -0.0821
     25 C          61.4950   81.6623   14.6447 C.ar    1  UNL1        0.0115
     26 C          61.5721   80.7122   13.4865 C.ar    1  UNL1        0.0008
     27 C          62.4734   81.0154   12.3265 C.ar    1  UNL1        0.0040
     28 C          63.2976   82.2686   12.3246 C.ar    1  UNL1        0.0753
     29 C          64.1990   82.5718   11.1646 C.3     1  UNL1        0.4187
     30 F          65.1003   82.8750   10.0045 F       1  UNL1       -0.1659
     31 F          63.0149   83.0249   10.3630 F       1  UNL1       -0.1659
     32 F          65.3831   82.1187   11.9661 F       1  UNL1       -0.1659
@<TRIPOS>UNITY_ATOM_ATTR
17 1
charge -1
@<TRIPOS>BOND
     1    17    18   ar
     2    18    19   ar
     3    18    10    1
     4    10    11   ar
     5    11    12   ar
     6    12    13   ar
     7    13     1    1
     8     1     2   ar
     9     2     3   ar
    10     3    20    1
    11    20    21    2
    12    20    22    1
    13    22    23   ar
    14    23    24    1
    15    23    25   ar
    16    25    26   ar
    17    26    27   ar
    18    27    28   ar
    19    28    29    1
    20    29    30    1
    21    29    31    1
    22    29    32    1
    23     3     4   ar
    24     4     5   ar
    25     5     6   ar
    26     6     7   ar
    27     7     8   ar
    28     8     9   ar
    29    13    14   ar
    30    14    15    1
    31    14    16   ar
    32    16    10   ar
    33     9     1   ar
    34    28    22   ar
    35     9     4   ar
@<TRIPOS>MOLECULE
*****
 32 35 0 0 0
SMALL
GASTEIGER

@<TRIPOS>ATOM
      1 N          63.6882   86.9467   14.0039 N.ar    1  UNL1       -0.2880
      2 C          63.9914   88.3315   13.5137 C.ar    1  UNL1        0.0847
      3 C          63.8552   89.2737   14.6730 C.ar    1  UNL1        0.0594
      4 C          63.4679   88.4711   15.8796 C.ar    1  UNL1        0.0391
      5 C          63.1959   88.8641   17.3013 C.ar    1  UNL1        0.0047
      6 C          62.8206   87.8189   18.3096 C.ar    1  UNL1        0.0208
      7 C          62.7174   86.3807   17.8961 C.ar    1  UNL1        0.1005
      8 N          62.9894   85.9877   16.4743 N.ar    1  UNL1       -0.2264
      9 C          63.3647   87.0329   15.4661 C.ar    1  UNL1        0.1478
     10 C          63.7403   83.1923   11.5235 C.ar    1  UNL1        0.0163
     11 C          62.8455   84.3331   11.1388 C.ar    1  UNL1        0.0028
     12 C          62.8282   85.5845   11.9656 C.ar    1  UNL1        0.0199
     13 C          63.7056   85.6953   13.1771 C.ar    1  UNL1        0.0927
     14 C          64.6004   84.5544   13.5619 C.ar    1  UNL1        0.1562
     15 F          65.4778   84.6651   14.7734 F       1  UNL1       -0.2026
     16 C          64.6177   83.3030   12.7350 C.ar    1  UNL1        0.0323
     17 O          62.8367   80.8061   11.0345 O.co2   1  UNL1       -0.5446
     18 C          63.7576   81.9409   10.6967 C.2     1  UNL1        0.0729
     19 O          64.6958   81.8243    9.5322 O.co2   1  UNL1       -0.5446
     20 C          64.0689   90.7578   14.6327 C.2     1  UNL1        0.1979
     21 O          63.6045   91.6137   15.7736 O.2     1  UNL1       -0.2865
     22 C          64.7469   91.3862   13.4513 C.ar    1  UNL1        0.0535
     23 C          64.0626   91.4059   12.1167 C.ar    1  UNL1        0.0607
     24 CL         62.7002   90.7972   11.9634 Cl      1  UNL1       -0.0821
     25 C          64.7406   92.0342   10.9354 C.ar    1  UNL1        0.0115
     26 C          66.1029   92.6429   11.0887 C.ar    1  UNL1        0.0008
     27 C          66.7872   92.6232   12.4234 C.ar    1  UNL1        0.0040
     28 C          66.1093   91.9949   13.6047 C.ar    1  UNL1        0.0753
     29 C          66.7936   91.9752   14.9393 C.3     1  UNL1        0.4187
     30 F          67.4779   91.9555   16.2740 F       1  UNL1       -0.1659
     31 F          66.2345   93.3329   15.2460 F       1  UNL1       -0.1659
     32 F          67.3527   90.6176   14.6326 F       1  UNL1       -0.1659
@<TRIPOS>UNITY_ATOM_ATTR
17 1
charge -1
@<TRIPOS>BOND
     1    17    18   ar
     2    18    19   ar
     3    18    10    1
     4    10    11   ar
     5    11    12   ar
     6    12    13   ar
     7    13     1    1
     8     1     2   ar
     9     2     3   ar
    10     3    20    1
    11    20    21    2
    12    20    22    1
    13    22    23   ar
    14    23    24    1
    15    23    25   ar
    16    25    26   ar
    17    26    27   ar
    18    27    28   ar
    19    28    29    1
    20    29    30    1
    21    29    31    1
    22    29    32    1
    23     3     4   ar
    24     4     5   ar
    25     5     6   ar
    26     6     7   ar
    27     7     8   ar
    28     8     9   ar
    29    13    14   ar
    30    14    15    1
    31    14    16   ar
    32    16    10   ar
    33     9     1   ar
    34    28    22   ar
    35     9     4   ar
@<TRIPOS>MOLECULE
*****
 32 35 0 0 0
SMALL
GASTEIGER

@<TRIPOS>ATOM
      1 N          62.3972   87.2950   11.3072 N.ar    1  UNL1       -0.2880
      2 C          62.8062   85.8656   11.5056 C.ar    1  UNL1        0.0847
      3 C          63.6052   85.7836   12.7724 C.ar    1  UNL1        0.0594
      4 C          63.6900   87.1624   13.3570 C.ar    1  UNL1        0.0391
      5 C          64.3506   87.6880   14.5969 C.ar    1  UNL1        0.0047
      6 C          64.2645   89.1477   14.9312 C.ar    1  UNL1        0.0208
      7 C          63.5179   90.0818   14.0256 C.ar    1  UNL1        0.1005
      8 N          62.8573   89.5562   12.7858 N.ar    1  UNL1       -0.2264
      9 C          62.9434   88.0965   12.4514 C.ar    1  UNL1        0.1478
     10 C          59.9594   88.8975    7.8809 C.ar    1  UNL1        0.0163
     11 C          60.6197   89.8442    8.8389 C.ar    1  UNL1        0.0028
     12 C          61.4323   89.3100    9.9810 C.ar    1  UNL1        0.0199
     13 C          61.5846   87.8292   10.1651 C.ar    1  UNL1        0.0927
     14 C          60.9242   86.8825    9.2071 C.ar    1  UNL1        0.1562
     15 F          61.0765   85.4016    9.3911 F       1  UNL1       -0.2026
     16 C          60.1117   87.4167    8.0650 C.ar    1  UNL1        0.0323
     17 O          59.8171   90.1896    5.6315 O.co2   1  UNL1       -0.5446
     18 C          59.1468   89.4317    6.7388 C.2     1  UNL1        0.0729
     19 O          57.6640   89.2080    6.7042 O.co2   1  UNL1       -0.5446
     20 C          64.2128   84.5411   13.3528 C.2     1  UNL1        0.1979
     21 O          65.5906   84.5855   13.9441 O.2     1  UNL1       -0.2865
     22 C          63.4426   83.2539   13.3418 C.ar    1  UNL1        0.0535
     23 C          63.5922   82.3001   12.1938 C.ar    1  UNL1        0.0607
     24 CL         64.5120   82.6335   11.0568 Cl      1  UNL1       -0.0821
     25 C          62.8220   81.0130   12.1828 C.ar    1  UNL1        0.0115
     26 C          61.9022   80.6797   13.3198 C.ar    1  UNL1        0.0008
     27 C          61.7526   81.6335   14.4678 C.ar    1  UNL1        0.0040
     28 C          62.5228   82.9206   14.4788 C.ar    1  UNL1        0.0753
     29 C          62.3732   83.8744   15.6268 C.3     1  UNL1        0.4187
     30 F          62.2236   84.8281   16.7748 F       1  UNL1       -0.1659
     31 F          63.6122   83.3105   16.2568 F       1  UNL1       -0.1659
     32 F          61.1341   84.4382   14.9969 F       1  UNL1       -0.1659
@<TRIPOS>UNITY_ATOM_ATTR
17 1
charge -1
@<TRIPOS>BOND
     1    17    18   ar
     2    18    19   ar
     3    18    10    1
     4    10    11   ar
     5    11    12   ar
     6    12    13   ar
     7    13     1    1
     8     1     2   ar
     9     2     3   ar
    10     3    20    1
    11    20    21    2
    12    20    22    1
    13    22    23   ar
    14    23    24    1
    15    23    25   ar
    16    25    26   ar
    17    26    27   ar
    18    27    28   ar
    19    28    29    1
    20    29    30    1
    21    29    31    1
    22    29    32    1
    23     3     4   ar
    24     4     5   ar
    25     5     6   ar
    26     6     7   ar
    27     7     8   ar
    28     8     9   ar
    29    13    14   ar
    30    14    15    1
    31    14    16   ar
    32    16    10   ar
    33     9     1   ar
    34    28    22   ar
    35     9     4   ar
@<TRIPOS>MOLECULE
*****
 32 35 0 0 0
SMALL
GASTEIGER

@<TRIPOS>ATOM
      1 N          63.4776   90.7177   11.6270 N.ar    1  UNL1       -0.2880
      2 C          64.3679   91.7906   11.0736 C.ar    1  UNL1        0.0847
      3 C          65.0964   92.4257   12.2208 C.ar    1  UNL1        0.0594
      4 C          64.6564   91.7453   13.4831 C.ar    1  UNL1        0.0391
      5 C          65.0375   91.9506   14.9192 C.ar    1  UNL1        0.0047
      6 C          64.4181   91.1002   15.9884 C.ar    1  UNL1        0.0208
      7 C          63.4175   90.0446   15.6214 C.ar    1  UNL1        0.1005
      8 N          63.0365   89.8394   14.1853 N.ar    1  UNL1       -0.2264
      9 C          63.6559   90.6897   13.1161 C.ar    1  UNL1        0.1478
     10 C          60.7505   88.0511    9.2391 C.ar    1  UNL1        0.0163
     11 C          60.7465   89.5323    9.0029 C.ar    1  UNL1        0.0028
     12 C          61.6555   90.4212    9.7989 C.ar    1  UNL1        0.0199
     13 C          62.5685   89.8289   10.8310 C.ar    1  UNL1        0.0927
     14 C          62.5726   88.3475   11.0673 C.ar    1  UNL1        0.1562
     15 F          63.4856   87.7551   12.0994 F       1  UNL1       -0.2026
     16 C          61.6635   87.4587   10.2713 C.ar    1  UNL1        0.0323
     17 O          60.2634   85.7613    8.1124 O.co2   1  UNL1       -0.5446
     18 C          59.8414   87.1622    8.4431 C.2     1  UNL1        0.0729
     19 O          58.5105   87.6743    7.9779 O.co2   1  UNL1       -0.5446
     20 C          66.0905   93.5447   12.1228 C.2     1  UNL1        0.1979
     21 O          66.6001   94.2065   13.3687 O.2     1  UNL1       -0.2865
     22 C          66.5750   94.0020   10.7788 C.ar    1  UNL1        0.0535
     23 C          66.0533   95.2782   10.1878 C.ar    1  UNL1        0.0607
     24 CL         65.0470   96.0970   10.9409 Cl      1  UNL1       -0.0821
     25 C          66.5377   95.7355    8.8439 C.ar    1  UNL1        0.0115
     26 C          67.5440   94.9166    8.0910 C.ar    1  UNL1        0.0008
     27 C          68.0658   93.6405    8.6820 C.ar    1  UNL1        0.0040
     28 C          67.5813   93.1832   10.0259 C.ar    1  UNL1        0.0753
     29 C          68.1031   91.9071   10.6169 C.3     1  UNL1        0.4187
     30 F          68.6248   90.6309   11.2078 F       1  UNL1       -0.1659
     31 F          67.7954   91.1884    9.3367 F       1  UNL1       -0.1659
     32 F          68.4107   92.6257   11.8971 F       1  UNL1       -0.1659
@<TRIPOS>UNITY_ATOM_ATTR
17 1
charge -1
@<TRIPOS>BOND
     1    17    18   ar
     2    18    19   ar
     3    18    10    1
     4    10    11   ar
     5    11    12   ar
     6    12    13   ar
     7    13     1    1
     8     1     2   ar
     9     2     3   ar
    10     3    20    1
    11    20    21    2
    12    20    22    1
    13    22    23   ar
    14    23    24    1
    15    23    25   ar
    16    25    26   ar
    17    26    27   ar
    18    27    28   ar
    19    28    29    1
    20    29    30    1
    21    29    31    1
    22    29    32    1
    23     3     4   ar
    24     4     5   ar
    25     5     6   ar
    26     6     7   ar
    27     7     8   ar
    28     8     9   ar
    29    13    14   ar
    30    14    15    1
    31    14    16   ar
    32    16    10   ar
    33     9     1   ar
    34    28    22   ar
    35     9     4   ar
@<TRIPOS>MOLECULE
*****
 32 35 0 0 0
SMALL
GASTEIGER

@<TRIPOS>ATOM
      1 N          62.2260   86.4227   11.5525 N.ar    1  UNL1       -0.2880
      2 C          62.6158   87.6401   12.3374 C.ar    1  UNL1        0.0847
      3 C          62.1329   88.8476   11.5899 C.ar    1  UNL1        0.0594
      4 C          61.4448   88.3765   10.3431 C.ar    1  UNL1        0.0391
      5 C          60.7733   89.1186    9.2258 C.ar    1  UNL1        0.0047
      6 C          60.1592   88.3620    8.0855 C.ar    1  UNL1        0.0208
      7 C          60.2168   86.8633    8.0624 C.ar    1  UNL1        0.1005
      8 N          60.8883   86.1212    9.1796 N.ar    1  UNL1       -0.2264
      9 C          61.5023   86.8778   10.3200 C.ar    1  UNL1        0.1478
     10 C          63.0782   82.1543   12.6948 C.ar    1  UNL1        0.0163
     11 C          62.4616   83.0890   13.6929 C.ar    1  UNL1        0.0028
     12 C          62.1775   84.5118   13.3121 C.ar    1  UNL1        0.0199
     13 C          62.5101   84.9999   11.9333 C.ar    1  UNL1        0.0927
     14 C          63.1268   84.0651   10.9352 C.ar    1  UNL1        0.1562
     15 F          63.4594   84.5532    9.5564 F       1  UNL1       -0.2026
     16 C          63.4108   82.6424   11.3160 C.ar    1  UNL1        0.0323
     17 O          64.2515   80.4316   14.2458 O.co2   1  UNL1       -0.5446
     18 C          63.3623   80.7315   13.0756 C.2     1  UNL1        0.0729
     19 O          62.7571   79.6087   12.2863 O.co2   1  UNL1       -0.5446
     20 C          62.3076   90.2756   12.0146 C.2     1  UNL1        0.1979
     21 O          61.1069   91.1134   12.3403 O.2     1  UNL1       -0.2865
     22 C          63.6831   90.8657   12.1138 C.ar    1  UNL1        0.0535
     23 C          64.2590   91.6246   10.9551 C.ar    1  UNL1        0.0607
     24 CL         63.4592   91.7933    9.6973 Cl      1  UNL1       -0.0821
     25 C          65.6344   92.2147   11.0541 C.ar    1  UNL1        0.0115
     26 C          66.4341   92.0460   12.3119 C.ar    1  UNL1        0.0008
     27 C          65.8582   91.2871   13.4706 C.ar    1  UNL1        0.0040
     28 C          64.4828   90.6970   13.3716 C.ar    1  UNL1        0.0753
     29 C          63.9070   89.9382   14.5303 C.3     1  UNL1        0.4187
     30 F          63.3312   89.1793   15.6890 F       1  UNL1       -0.1659
     31 F          64.6333   88.7043   14.0832 F       1  UNL1       -0.1659
     32 F          63.1806   91.1720   14.9774 F       1  UNL1       -0.1659
@<TRIPOS>UNITY_ATOM_ATTR
17 1
charge -1
@<TRIPOS>BOND
     1    17    18   ar
     2    18    19   ar
     3    18    10    1
     4    10    11   ar
     5    11    12   ar
     6    12    13   ar
     7    13     1    1
     8     1     2   ar
     9     2     3   ar
    10     3    20    1
    11    20    21    2
    12    20    22    1
    13    22    23   ar
    14    23    24    1
    15    23    25   ar
    16    25    26   ar
    17    26    27   ar
    18    27    28   ar
    19    28    29    1
    20    29    30    1
    21    29    31    1
    22    29    32    1
    23     3     4   ar
    24     4     5   ar
    25     5     6   ar
    26     6     7   ar
    27     7     8   ar
    28     8     9   ar
    29    13    14   ar
    30    14    15    1
    31    14    16   ar
    32    16    10   ar
    33     9     1   ar
    34    28    22   ar
    35     9     4   ar
@<TRIPOS>MOLECULE
*****
 32 35 0 0 0
SMALL
GASTEIGER

@<TRIPOS>ATOM
      1 N          62.9289   87.3838   12.4303 N.ar    1  UNL1       -0.2880
      2 C          63.7845   88.3967   13.1316 C.ar    1  UNL1        0.0847
      3 C          63.2953   89.7618   12.7482 C.ar    1  UNL1        0.0594
      4 C          62.1373   89.5926   11.8099 C.ar    1  UNL1        0.0391
      5 C          61.2597   90.5870   11.1091 C.ar    1  UNL1        0.0047
      6 C          60.1558   90.1116   10.2118 C.ar    1  UNL1        0.0208
      7 C          59.9294   88.6419   10.0152 C.ar    1  UNL1        0.1005
      8 N          60.8069   87.6475   10.7161 N.ar    1  UNL1       -0.2264
      9 C          61.9108   88.1229   11.6134 C.ar    1  UNL1        0.1478
     10 C          63.3434   82.9126   12.7250 C.ar    1  UNL1        0.0163
     11 C          62.7327   83.5302   11.5020 C.ar    1  UNL1        0.0028
     12 C          62.5946   85.0206   11.4038 C.ar    1  UNL1        0.0199
     13 C          63.0670   85.8934   12.5285 C.ar    1  UNL1        0.0927
     14 C          63.6777   85.2757   13.7515 C.ar    1  UNL1        0.1562
     15 F          64.1502   86.1485   14.8762 F       1  UNL1       -0.2026
     16 C          63.8158   83.7853   13.8497 C.ar    1  UNL1        0.0323
     17 O          63.0440   80.5517   11.6827 O.co2   1  UNL1       -0.5446
     18 C          63.4815   81.4222   12.8232 C.2     1  UNL1        0.0729
     19 O          64.0572   80.8023   14.0619 O.co2   1  UNL1       -0.5446
     20 C          63.8641   91.0670   13.2202 C.2     1  UNL1        0.1979
     21 O          63.3373   91.7064   14.4706 O.2     1  UNL1       -0.2865
     22 C          64.9600   91.7329   12.4418 C.ar    1  UNL1        0.0535
     23 C          64.8068   91.9485   10.9653 C.ar    1  UNL1        0.0607
     24 CL         63.5577   91.4983   10.2673 Cl      1  UNL1       -0.0821
     25 C          65.9025   92.6143   10.1868 C.ar    1  UNL1        0.0115
     26 C          67.1515   93.0646   10.8849 C.ar    1  UNL1        0.0008
     27 C          67.3047   92.8489   12.3614 C.ar    1  UNL1        0.0040
     28 C          66.2090   92.1831   13.1399 C.ar    1  UNL1        0.0753
     29 C          66.3622   91.9675   14.6164 C.3     1  UNL1        0.4187
     30 F          66.5154   91.7519   16.0929 F       1  UNL1       -0.1659
     31 F          66.0575   93.4160   14.8595 F       1  UNL1       -0.1659
     32 F          66.6669   90.5191   14.3732 F       1  UNL1       -0.1659
@<TRIPOS>UNITY_ATOM_ATTR
17 1
charge -1
@<TRIPOS>BOND
     1    17    18   ar
     2    18    19   ar
     3    18    10    1
     4    10    11   ar
     5    11    12   ar
     6    12    13   ar
     7    13     1    1
     8     1     2   ar
     9     2     3   ar
    10     3    20    1
    11    20    21    2
    12    20    22    1
    13    22    23   ar
    14    23    24    1
    15    23    25   ar
    16    25    26   ar
    17    26    27   ar
    18    27    28   ar
    19    28    29    1
    20    29    30    1
    21    29    31    1
    22    29    32    1
    23     3     4   ar
    24     4     5   ar
    25     5     6   ar
    26     6     7   ar
    27     7     8   ar
    28     8     9   ar
    29    13    14   ar
    30    14    15    1
    31    14    16   ar
    32    16    10   ar
    33     9     1   ar
    34    28    22   ar
    35     9     4   ar
@<TRIPOS>MOLECULE
*****
 32 35 0 0 0
SMALL
GASTEIGER

@<TRIPOS>ATOM
      1 N          63.5583   87.3363   13.3368 N.ar    1  UNL1       -0.2880
      2 C          64.2304   86.0143   13.5618 C.ar    1  UNL1        0.0847
      3 C          63.7067   85.0484   12.5406 C.ar    1  UNL1        0.0594
      4 C          62.7110   85.7735   11.6845 C.ar    1  UNL1        0.0391
      5 C          61.8759   85.3288   10.5205 C.ar    1  UNL1        0.0047
      6 C          60.9493   86.2982    9.8485 C.ar    1  UNL1        0.0208
      7 C          60.8576   87.7122   10.3406 C.ar    1  UNL1        0.1005
      8 N          61.6926   88.1569   11.5047 N.ar    1  UNL1       -0.2264
      9 C          62.6193   87.1875   12.1766 C.ar    1  UNL1        0.1478
     10 C          64.2396   91.0899   15.7236 C.ar    1  UNL1        0.0163
     11 C          64.4959   91.0840   14.2457 C.ar    1  UNL1        0.0028
     12 C          64.2688   89.8328   13.4501 C.ar    1  UNL1        0.0199
     13 C          63.7854   88.5875   14.1324 C.ar    1  UNL1        0.0927
     14 C          63.5291   88.5934   15.6104 C.ar    1  UNL1        0.1562
     15 F          63.0457   87.3481   16.2927 F       1  UNL1       -0.2026
     16 C          63.7562   89.8446   16.4059 C.ar    1  UNL1        0.0323
     17 O          63.2973   93.1034   17.0680 O.co2   1  UNL1       -0.5446
     18 C          64.4667   92.3411   16.5192 C.2     1  UNL1        0.0729
     19 O          65.8632   92.8299   16.7658 O.co2   1  UNL1       -0.5446
     20 C          64.1081   83.6100   12.4001 C.2     1  UNL1        0.1979
     21 O          65.4390   83.2574   11.8049 O.2     1  UNL1       -0.2865
     22 C          63.1786   82.5240   12.8548 C.ar    1  UNL1        0.0535
     23 C          62.7925   81.4235   11.9115 C.ar    1  UNL1        0.0607
     24 CL         63.3360   81.4090   10.5135 Cl      1  UNL1       -0.0821
     25 C          61.8631   80.3375   12.3662 C.ar    1  UNL1        0.0115
     26 C          61.3196   80.3521   13.7642 C.ar    1  UNL1        0.0008
     27 C          61.7057   81.4526   14.7075 C.ar    1  UNL1        0.0040
     28 C          62.6352   82.5386   14.2529 C.ar    1  UNL1        0.0753
     29 C          63.0212   83.6391   15.1962 C.3     1  UNL1        0.4187
     30 F          63.4073   84.7396   16.1395 F       1  UNL1       -0.1659
     31 F          64.3510   82.9818   15.4188 F       1  UNL1       -0.1659
     32 F          61.6914   84.2964   14.9735 F       1  UNL1       -0.1659
@<TRIPOS>UNITY_ATOM_ATTR
17 1
charge -1
@<TRIPOS>BOND
     1    17    18   ar
     2    18    19   ar
     3    18    10    1
     4    10    11   ar
     5    11    12   ar
     6    12    13   ar
     7    13     1    1
     8     1     2   ar
     9     2     3   ar
    10     3    20    1
    11    20    21    2
    12    20    22    1
    13    22    23   ar
    14    23    24    1
    15    23    25   ar
    16    25    26   ar
    17    26    27   ar
    18    27    28   ar
    19    28    29    1
    20    29    30    1
    21    29    31    1
    22    29    32    1
    23     3     4   ar
    24     4     5   ar
    25     5     6   ar
    26     6     7   ar
    27     7     8   ar
    28     8     9   ar
    29    13    14   ar
    30    14    15    1
    31    14    16   ar
    32    16    10   ar
    33     9     1   ar
    34    28    22   ar
    35     9     4   ar
@<TRIPOS>MOLECULE
*****
 32 35 0 0 0
SMALL
GASTEIGER

@<TRIPOS>ATOM
      1 N          63.2195   89.2038   11.8401 N.ar    1  UNL1       -0.2880
      2 C          63.5033   87.9126   12.5488 C.ar    1  UNL1        0.0847
      3 C          62.4805   86.9077   12.1085 C.ar    1  UNL1        0.0594
      4 C          61.5646   87.5777   11.1276 C.ar    1  UNL1        0.0391
      5 C          60.3737   87.0790   10.3640 C.ar    1  UNL1        0.0047
      6 C          59.6396   87.9994    9.4346 C.ar    1  UNL1        0.0208
      7 C          60.0963   89.4185    9.2687 C.ar    1  UNL1        0.1005
      8 N          61.2872   89.9172   10.0322 N.ar    1  UNL1       -0.2264
      9 C          62.0213   88.9968   10.9617 C.ar    1  UNL1        0.1478
     10 C          65.5530   93.0271   12.2730 C.ar    1  UNL1        0.0163
     11 C          64.8991   92.6915   10.9654 C.ar    1  UNL1        0.0028
     12 C          64.1213   91.4170   10.8211 C.ar    1  UNL1        0.0199
     13 C          63.9973   90.4783   11.9843 C.ar    1  UNL1        0.0927
     14 C          64.6512   90.8139   13.2920 C.ar    1  UNL1        0.1562
     15 F          64.5273   89.8751   14.4553 F       1  UNL1       -0.2026
     16 C          65.4290   92.0884   13.4363 C.ar    1  UNL1        0.0323
     17 O          66.5432   94.9008   13.7758 O.co2   1  UNL1       -0.5446
     18 C          66.3308   94.3016   12.4172 C.2     1  UNL1        0.0729
     19 O          66.8961   94.9768   11.2029 O.co2   1  UNL1       -0.5446
     20 C          62.3896   85.4828   12.5683 C.2     1  UNL1        0.1979
     21 O          61.5154   85.1250   13.7334 O.2     1  UNL1       -0.2865
     22 C          63.1730   84.4156   11.8628 C.ar    1  UNL1        0.0535
     23 C          63.2014   84.3732   10.3637 C.ar    1  UNL1        0.0607
     24 CL         62.4464   85.3980    9.5700 Cl      1  UNL1       -0.0821
     25 C          63.9847   83.3061    9.6583 C.ar    1  UNL1        0.0115
     26 C          64.7396   82.2813   10.4520 C.ar    1  UNL1        0.0008
     27 C          64.7112   82.3238   11.9511 C.ar    1  UNL1        0.0040
     28 C          63.9279   83.3908   12.6566 C.ar    1  UNL1        0.0753
     29 C          63.8995   83.4333   14.1557 C.3     1  UNL1        0.4187
     30 F          63.8710   83.4757   15.6548 F       1  UNL1       -0.1659
     31 F          64.9827   84.4708   14.1469 F       1  UNL1       -0.1659
     32 F          62.8162   82.3957   14.1645 F       1  UNL1       -0.1659
@<TRIPOS>UNITY_ATOM_ATTR
17 1
charge -1
@<TRIPOS>BOND
     1    17    18   ar
     2    18    19   ar
     3    18    10    1
     4    10    11   ar
     5    11    12   ar
     6    12    13   ar
     7    13     1    1
     8     1     2   ar
     9     2     3   ar
    10     3    20    1
    11    20    21    2
    12    20    22    1
    13    22    23   ar
    14    23    24    1
    15    23    25   ar
    16    25    26   ar
    17    26    27   ar
    18    27    28   ar
    19    28    29    1
    20    29    30    1
    21    29    31    1
    22    29    32    1
    23     3     4   ar
    24     4     5   ar
    25     5     6   ar
    26     6     7   ar
    27     7     8   ar
    28     8     9   ar
    29    13    14   ar
    30    14    15    1
    31    14    16   ar
    32    16    10   ar
    33     9     1   ar
    34    28    22   ar
    35     9     4   ar
