@<TRIPOS>MOLECULE
*****
 18 20 0 0 0
SMALL
GASTEIGER

@<TRIPOS>ATOM
      1 C          64.0035   83.2168   11.7731 C.3     1  UNL1        0.0992
      2 CL         61.1183   87.0189    8.1372 Cl      1  UNL1       -0.0814
      3 C          61.8396   86.0684    9.0462 C.ar    1  UNL1        0.0682
      4 C          62.8181   85.0838    8.4778 C.ar    1  UNL1        0.0120
      5 C          63.5394   84.1333    9.3868 C.ar    1  UNL1       -0.0020
      6 C          63.2822   84.1673   10.8642 C.ar    1  UNL1       -0.0052
      7 C          62.3037   85.1519   11.4325 C.ar    1  UNL1        0.0093
      8 C          61.5824   86.1024   10.5236 C.ar    1  UNL1        0.0679
      9 CL         60.6039   87.0870   11.0920 Cl      1  UNL1       -0.0814
     10 N          63.4802   82.9572   13.1547 N.3     1  UNL1       -0.2691
     11 C          63.8159   83.8988   14.2731 C.3     1  UNL1        0.0894
     12 C          64.9754   84.7950   14.5931 C.3     1  UNL1        0.0862
     13 N          64.2907   85.2304   15.8547 N.3     1  UNL1       -0.2951
     14 C          63.1312   84.3342   15.5347 C.3     1  UNL1        0.0862
     15 H          64.0556   86.2226   15.8798 H       1  UNL1        0.1233
     16 C          62.6211   81.7561   13.4178 C.3     1  UNL1        0.0579
     17 C          61.4040   81.1413   14.0427 C.3     1  UNL1        0.0173
     18 C          62.3503   80.2905   13.2487 C.3     1  UNL1        0.0173
@<TRIPOS>BOND
     1     2     3    1
     2     3     4   ar
     3     4     5   ar
     4     5     6   ar
     5     6     1    1
     6     1    10    1
     7    10    16    1
     8    16    17    1
     9    17    18    1
    10    10    11    1
    11    11    12    1
    12    12    13    1
    13    13    14    1
    14     6     7   ar
    15     7     8   ar
    16     8     9    1
    17     8     3   ar
    18    18    16    1
    19    14    11    1
    20    13    15    1
@<TRIPOS>MOLECULE
*****
 18 20 0 0 0
SMALL
GASTEIGER

@<TRIPOS>ATOM
      1 C          62.8411   85.7033    8.9762 C.3     1  UNL1        0.0992
      2 CL         63.9014   81.7330   13.3481 Cl      1  UNL1       -0.0814
      3 C          63.6363   82.7256   12.2551 C.ar    1  UNL1        0.0682
      4 C          64.1559   82.4735   10.8708 C.ar    1  UNL1        0.0120
      5 C          63.8908   83.4660    9.7778 C.ar    1  UNL1       -0.0020
      6 C          63.1061   84.7107   10.0692 C.ar    1  UNL1       -0.0052
      7 C          62.5866   84.9629   11.4535 C.ar    1  UNL1        0.0093
      8 C          62.8517   83.9703   12.5465 C.ar    1  UNL1        0.0679
      9 CL         62.3320   84.2225   13.9309 Cl      1  UNL1       -0.0814
     10 N          61.8304   86.7925    9.1812 N.3     1  UNL1       -0.2691
     11 C          60.4840   86.6994    8.5265 C.3     1  UNL1        0.0894
     12 C          59.8840   85.8412    7.4525 C.3     1  UNL1        0.0862
     13 N          58.5800   86.5676    7.6005 N.3     1  UNL1       -0.2951
     14 C          59.1800   87.4258    8.6745 C.3     1  UNL1        0.0862
     15 H          57.8097   85.9797    7.9190 H       1  UNL1        0.1233
     16 C          62.1661   87.9750   10.0410 C.3     1  UNL1        0.0579
     17 C          62.3676   89.4533   10.1955 C.3     1  UNL1        0.0173
     18 C          62.5459   88.5446   11.3756 C.3     1  UNL1        0.0173
@<TRIPOS>BOND
     1     2     3    1
     2     3     4   ar
     3     4     5   ar
     4     5     6   ar
     5     6     1    1
     6     1    10    1
     7    10    16    1
     8    16    17    1
     9    17    18    1
    10    10    11    1
    11    11    12    1
    12    12    13    1
    13    13    14    1
    14     6     7   ar
    15     7     8   ar
    16     8     9    1
    17     8     3   ar
    18    18    16    1
    19    14    11    1
    20    13    15    1
@<TRIPOS>MOLECULE
*****
 18 20 0 0 0
SMALL
GASTEIGER

@<TRIPOS>ATOM
      1 C          62.1140   88.7457   10.0033 C.3     1  UNL1        0.0992
      2 CL         65.0924   91.1986   14.5981 Cl      1  UNL1       -0.0814
      3 C          64.3478   90.5854   13.4494 C.ar    1  UNL1        0.0682
      4 C          64.0033   91.4168   12.2494 C.ar    1  UNL1        0.0120
      5 C          63.2587   90.8036   11.1007 C.ar    1  UNL1       -0.0020
      6 C          62.8586   89.3589   11.1520 C.ar    1  UNL1       -0.0052
      7 C          63.2030   88.5275   12.3520 C.ar    1  UNL1        0.0093
      8 C          63.9476   89.1407   13.5007 C.ar    1  UNL1        0.0679
      9 CL         64.2921   88.3092   14.7007 Cl      1  UNL1       -0.0814
     10 N          60.6174   88.8312    9.9484 N.3     1  UNL1       -0.2691
     11 C          59.8714   88.2000    8.8103 C.3     1  UNL1        0.0894
     12 C          59.3707   88.6736    7.4780 C.3     1  UNL1        0.0862
     13 N          58.8164   87.3076    7.2008 N.3     1  UNL1       -0.2951
     14 C          59.3171   86.8341    8.5331 C.3     1  UNL1        0.0862
     15 H          59.2457   86.8379    6.4036 H       1  UNL1        0.1233
     16 C          59.8669   89.5478   11.0315 C.3     1  UNL1        0.0579
     17 C          59.2056   89.5394   12.3778 C.3     1  UNL1        0.0173
     18 C          59.2282   90.7974   11.5611 C.3     1  UNL1        0.0173
@<TRIPOS>BOND
     1     2     3    1
     2     3     4   ar
     3     4     5   ar
     4     5     6   ar
     5     6     1    1
     6     1    10    1
     7    10    16    1
     8    16    17    1
     9    17    18    1
    10    10    11    1
    11    11    12    1
    12    12    13    1
    13    13    14    1
    14     6     7   ar
    15     7     8   ar
    16     8     9    1
    17     8     3   ar
    18    18    16    1
    19    14    11    1
    20    13    15    1
@<TRIPOS>MOLECULE
*****
 18 20 0 0 0
SMALL
GASTEIGER

@<TRIPOS>ATOM
      1 C          63.0105   85.6929   12.4804 C.3     1  UNL1        0.0992
      2 CL         60.1728   89.0568    8.4022 Cl      1  UNL1       -0.0814
      3 C          60.8822   88.2158    9.4218 C.ar    1  UNL1        0.0682
      4 C          60.5403   86.7623    9.5642 C.ar    1  UNL1        0.0120
      5 C          61.2498   85.9213   10.5837 C.ar    1  UNL1       -0.0020
      6 C          62.3011   86.5339   11.4609 C.ar    1  UNL1       -0.0052
      7 C          62.6430   87.9874   11.3185 C.ar    1  UNL1        0.0093
      8 C          61.9335   88.8284   10.2989 C.ar    1  UNL1        0.0679
      9 CL         62.2754   90.2820   10.1566 Cl      1  UNL1       -0.0814
     10 N          63.1146   84.2090   12.2875 N.3     1  UNL1       -0.2691
     11 C          62.7121   83.2789   13.3933 C.3     1  UNL1        0.0894
     12 C          62.5538   83.4040   14.8797 C.3     1  UNL1        0.0862
     13 N          62.1429   81.9635   14.9572 N.3     1  UNL1       -0.2951
     14 C          62.3012   81.8383   13.4709 C.3     1  UNL1        0.0862
     15 H          61.1887   81.8199   15.2879 H       1  UNL1        0.1233
     16 C          63.6211   83.6553   10.9887 C.3     1  UNL1        0.0579
     17 C          64.2592   82.5420   10.2120 C.3     1  UNL1        0.0173
     18 C          63.8604   83.8094    9.5160 C.3     1  UNL1        0.0173
@<TRIPOS>BOND
     1     2     3    1
     2     3     4   ar
     3     4     5   ar
     4     5     6   ar
     5     6     1    1
     6     1    10    1
     7    10    16    1
     8    16    17    1
     9    17    18    1
    10    10    11    1
    11    11    12    1
    12    12    13    1
    13    13    14    1
    14     6     7   ar
    15     7     8   ar
    16     8     9    1
    17     8     3   ar
    18    18    16    1
    19    14    11    1
    20    13    15    1
@<TRIPOS>MOLECULE
*****
 18 20 0 0 0
SMALL
GASTEIGER

@<TRIPOS>ATOM
      1 C          64.0327   83.9943   14.5333 C.3     1  UNL1        0.0992
      2 CL         63.1691   89.4149   16.9564 Cl      1  UNL1       -0.0814
      3 C          63.3850   88.0598   16.3506 C.ar    1  UNL1        0.0682
      4 C          62.8638   86.8364   17.0445 C.ar    1  UNL1        0.0120
      5 C          63.0797   85.4812   16.4387 C.ar    1  UNL1       -0.0020
      6 C          63.8168   85.3495   15.1390 C.ar    1  UNL1       -0.0052
      7 C          64.3380   86.5729   14.4451 C.ar    1  UNL1        0.0093
      8 C          64.1221   87.9280   15.0509 C.ar    1  UNL1        0.0679
      9 CL         64.6433   89.1515   14.3569 Cl      1  UNL1       -0.0814
     10 N          63.1199   83.5035   13.4489 N.3     1  UNL1       -0.2691
     11 C          62.6056   82.0947   13.4821 C.3     1  UNL1        0.0894
     12 C          62.9621   80.8186   12.7790 C.3     1  UNL1        0.0862
     13 N          61.8782   80.1026   13.5290 N.3     1  UNL1       -0.2951
     14 C          61.5217   81.3787   14.2321 C.3     1  UNL1        0.0862
     15 H          62.2169   79.3664   14.1485 H       1  UNL1        0.1233
     16 C          62.7215   84.4212   12.3314 C.3     1  UNL1        0.0579
     17 C          62.0505   85.6764   11.8578 C.3     1  UNL1        0.0173
     18 C          62.7023   84.7556   10.8693 C.3     1  UNL1        0.0173
@<TRIPOS>BOND
     1     2     3    1
     2     3     4   ar
     3     4     5   ar
     4     5     6   ar
     5     6     1    1
     6     1    10    1
     7    10    16    1
     8    16    17    1
     9    17    18    1
    10    10    11    1
    11    11    12    1
    12    12    13    1
    13    13    14    1
    14     6     7   ar
    15     7     8   ar
    16     8     9    1
    17     8     3   ar
    18    18    16    1
    19    14    11    1
    20    13    15    1
@<TRIPOS>MOLECULE
*****
 18 20 0 0 0
SMALL
GASTEIGER

@<TRIPOS>ATOM
      1 C          64.0897   83.6705   11.6698 C.3     1  UNL1        0.0992
      2 CL         60.5281   86.7784    7.9744 Cl      1  UNL1       -0.0814
      3 C          61.4185   86.0015    8.8982 C.ar    1  UNL1        0.0682
      4 C          61.2690   86.1482   10.3835 C.ar    1  UNL1        0.0120
      5 C          62.1593   85.3712   11.3074 C.ar    1  UNL1       -0.0020
      6 C          63.1993   84.4475   10.7460 C.ar    1  UNL1       -0.0052
      7 C          63.3489   84.3008    9.2607 C.ar    1  UNL1        0.0093
      8 C          62.4585   85.0778    8.3368 C.ar    1  UNL1        0.0679
      9 CL         62.6081   84.9310    6.8515 Cl      1  UNL1       -0.0814
     10 N          63.6289   83.3481   13.0604 N.3     1  UNL1       -0.2691
     11 C          62.8592   82.0875   13.3221 C.3     1  UNL1        0.0894
     12 C          62.8332   80.7155   12.7163 C.3     1  UNL1        0.0862
     13 N          61.7706   80.3047   13.6921 N.3     1  UNL1       -0.2951
     14 C          61.7966   81.6767   14.2979 C.3     1  UNL1        0.0862
     15 H          62.0561   79.5622   14.3305 H       1  UNL1        0.1233
     16 C          63.9380   84.2862   14.1893 C.3     1  UNL1        0.0579
     17 C          63.6634   84.7827   15.5778 C.3     1  UNL1        0.0173
     18 C          64.7477   85.4144   14.7561 C.3     1  UNL1        0.0173
@<TRIPOS>BOND
     1     2     3    1
     2     3     4   ar
     3     4     5   ar
     4     5     6   ar
     5     6     1    1
     6     1    10    1
     7    10    16    1
     8    16    17    1
     9    17    18    1
    10    10    11    1
    11    11    12    1
    12    12    13    1
    13    13    14    1
    14     6     7   ar
    15     7     8   ar
    16     8     9    1
    17     8     3   ar
    18    18    16    1
    19    14    11    1
    20    13    15    1
@<TRIPOS>MOLECULE
*****
 18 20 0 0 0
SMALL
GASTEIGER

@<TRIPOS>ATOM
      1 C          63.9793   83.6282   11.2654 C.3     1  UNL1        0.0992
      2 CL         60.5156   87.4258    8.1701 Cl      1  UNL1       -0.0814
      3 C          61.3815   86.4764    8.9439 C.ar    1  UNL1        0.0682
      4 C          62.3142   85.5517    8.2195 C.ar    1  UNL1        0.0120
      5 C          63.1802   84.6023    8.9933 C.ar    1  UNL1       -0.0020
      6 C          63.1134   84.5776   10.4916 C.ar    1  UNL1       -0.0052
      7 C          62.1807   85.5023   11.2160 C.ar    1  UNL1        0.0093
      8 C          61.3148   86.4517   10.4422 C.ar    1  UNL1        0.0679
      9 CL         60.3820   87.3765   11.1667 Cl      1  UNL1       -0.0814
     10 N          63.7067   83.3796   12.7193 N.3     1  UNL1       -0.2691
     11 C          62.8821   82.1979   13.1363 C.3     1  UNL1        0.0894
     12 C          61.9302   81.9124   14.2598 C.3     1  UNL1        0.0862
     13 N          61.7160   80.5269   13.7262 N.3     1  UNL1       -0.2951
     14 C          62.6680   80.8125   12.6028 C.3     1  UNL1        0.0862
     15 H          60.7598   80.3401   13.4245 H       1  UNL1        0.1233
     16 C          64.2585   84.3125   13.7561 C.3     1  UNL1        0.0579
     17 C          64.0486   85.3946   14.7735 C.3     1  UNL1        0.0173
     18 C          65.4243   84.8464   14.5346 C.3     1  UNL1        0.0173
@<TRIPOS>BOND
     1     2     3    1
     2     3     4   ar
     3     4     5   ar
     4     5     6   ar
     5     6     1    1
     6     1    10    1
     7    10    16    1
     8    16    17    1
     9    17    18    1
    10    10    11    1
    11    11    12    1
    12    12    13    1
    13    13    14    1
    14     6     7   ar
    15     7     8   ar
    16     8     9    1
    17     8     3   ar
    18    18    16    1
    19    14    11    1
    20    13    15    1
@<TRIPOS>MOLECULE
*****
 18 20 0 0 0
SMALL
GASTEIGER

@<TRIPOS>ATOM
      1 C          63.7960   85.4357   13.7073 C.3     1  UNL1        0.0992
      2 CL         62.6748   79.7918   12.0074 Cl      1  UNL1       -0.0814
      3 C          62.9551   81.2028   12.4324 C.ar    1  UNL1        0.0682
      4 C          64.0459   81.9850   11.7630 C.ar    1  UNL1        0.0120
      5 C          64.3262   83.3960   12.1880 C.ar    1  UNL1       -0.0020
      6 C          63.5157   84.0247   13.2824 C.ar    1  UNL1       -0.0052
      7 C          62.4249   83.2425   13.9517 C.ar    1  UNL1        0.0093
      8 C          62.1446   81.8315   13.5268 C.ar    1  UNL1        0.0679
      9 CL         61.0537   81.0493   14.1962 Cl      1  UNL1       -0.0814
     10 N          63.2598   86.5821   12.9021 N.3     1  UNL1       -0.2691
     11 C          63.6247   87.9905   13.2672 C.3     1  UNL1        0.0894
     12 C          64.3255   88.6387   14.4243 C.3     1  UNL1        0.0862
     13 N          64.1407   89.9823   13.7835 N.3     1  UNL1       -0.2951
     14 C          63.4399   89.3341   12.6265 C.3     1  UNL1        0.0862
     15 H          65.0131   90.4482   13.5340 H       1  UNL1        0.1233
     16 C          62.3588   86.3200   11.7319 C.3     1  UNL1        0.0579
     17 C          61.1027   86.6165   10.9676 C.3     1  UNL1        0.0173
     18 C          62.0544   85.5697   10.4692 C.3     1  UNL1        0.0173
@<TRIPOS>BOND
     1     2     3    1
     2     3     4   ar
     3     4     5   ar
     4     5     6   ar
     5     6     1    1
     6     1    10    1
     7    10    16    1
     8    16    17    1
     9    17    18    1
    10    10    11    1
    11    11    12    1
    12    12    13    1
    13    13    14    1
    14     6     7   ar
    15     7     8   ar
    16     8     9    1
    17     8     3   ar
    18    18    16    1
    19    14    11    1
    20    13    15    1
@<TRIPOS>MOLECULE
*****
 18 20 0 0 0
SMALL
GASTEIGER

@<TRIPOS>ATOM
      1 C          62.2718   89.3329    9.8768 C.3     1  UNL1        0.0992
      2 CL         65.3362   91.1285   14.7126 Cl      1  UNL1       -0.0814
      3 C          64.5701   90.6796   13.5036 C.ar    1  UNL1        0.0682
      4 C          63.8490   89.3644   13.5184 C.ar    1  UNL1        0.0120
      5 C          63.0829   88.9155   12.3094 C.ar    1  UNL1       -0.0020
      6 C          63.0379   89.7818   11.0857 C.ar    1  UNL1       -0.0052
      7 C          63.7590   91.0970   11.0710 C.ar    1  UNL1        0.0093
      8 C          64.5251   91.5459   12.2799 C.ar    1  UNL1        0.0679
      9 CL         65.2462   92.8611   12.2652 Cl      1  UNL1       -0.0814
     10 N          60.8426   88.8985   10.0132 N.3     1  UNL1       -0.2691
     11 C          60.2962   87.8255    9.1186 C.3     1  UNL1        0.0894
     12 C          60.5313   86.3521    8.9637 C.3     1  UNL1        0.0862
     13 N          59.5235   86.3080    7.8536 N.3     1  UNL1       -0.2951
     14 C          59.2883   87.7814    8.0085 C.3     1  UNL1        0.0862
     15 H          58.7061   85.7324    8.0558 H       1  UNL1        0.1233
     16 C          59.9597   89.5369   11.0442 C.3     1  UNL1        0.0579
     17 C          59.1925   89.4512   12.3302 C.3     1  UNL1        0.0173
     18 C          59.1979   90.7285   11.5438 C.3     1  UNL1        0.0173
@<TRIPOS>BOND
     1     2     3    1
     2     3     4   ar
     3     4     5   ar
     4     5     6   ar
     5     6     1    1
     6     1    10    1
     7    10    16    1
     8    16    17    1
     9    17    18    1
    10    10    11    1
    11    11    12    1
    12    12    13    1
    13    13    14    1
    14     6     7   ar
    15     7     8   ar
    16     8     9    1
    17     8     3   ar
    18    18    16    1
    19    14    11    1
    20    13    15    1
