@<TRIPOS>MOLECULE
*****
 14 14 0 0 0
SMALL
GASTEIGER

@<TRIPOS>ATOM
      1 C          63.5715   90.3250   13.2216 C.ar    1  UNL1        0.1493
      2 C          64.0582   91.3188   12.2089 C.ar    1  UNL1        0.0582
      3 C          65.1175   92.3128   12.5825 C.ar    1  UNL1        0.1020
      4 N          65.6903   92.3131   13.9688 N.ar    1  UNL1       -0.2415
      5 C          65.2037   91.3193   14.9815 C.ar    1  UNL1        0.1101
      6 C          64.1443   90.3253   14.6079 C.ar    1  UNL1        0.0947
      7 C          61.4689   89.6926   11.8327 C.3     1  UNL1        0.2525
      8 O          62.5122   89.3309   12.8479 O.3     1  UNL1       -0.4707
      9 C          63.6577   89.3315   15.6207 C.1     1  UNL1       -0.0584
     10 C          63.1711   88.3377   16.6333 C.1     1  UNL1       -0.0688
     11 C          62.6845   87.3439   17.6461 C.3     1  UNL1        0.1432
     12 N          61.7141   86.2742   17.2410 N.3     1  UNL1       -0.3102
     13 H          60.8254   86.7020   16.9810 H       1  UNL1        0.1198
     14 H          61.5679   85.6344   18.0218 H       1  UNL1        0.1198
@<TRIPOS>BOND
     1     7     8    1
     2     8     1    1
     3     1     2   ar
     4     2     3   ar
     5     3     4   ar
     6     4     5   ar
     7     5     6   ar
     8     6     9    1
     9     9    10    3
    10    10    11    1
    11    11    12    1
    12     6     1   ar
    13    12    13    1
    14    12    14    1
@<TRIPOS>MOLECULE
*****
 14 14 0 0 0
SMALL
GASTEIGER

@<TRIPOS>ATOM
      1 C          63.0153   83.9363   12.9546 C.ar    1  UNL1        0.1493
      2 C          63.9085   82.7567   13.2009 C.ar    1  UNL1        0.0582
      3 C          64.6232   82.1049   12.0545 C.ar    1  UNL1        0.1020
      4 N          64.4448   82.6326   10.6619 N.ar    1  UNL1       -0.2415
      5 C          63.5517   83.8123   10.4156 C.ar    1  UNL1        0.1101
      6 C          62.8369   84.4641   11.5620 C.ar    1  UNL1        0.0947
      7 C          62.5834   84.1506   15.5076 C.3     1  UNL1        0.2525
      8 O          62.3005   84.5882   14.1010 O.3     1  UNL1       -0.4707
      9 C          61.9437   85.6438   11.3156 C.1     1  UNL1       -0.0584
     10 C          61.0506   86.8234   11.0693 C.1     1  UNL1       -0.0688
     11 C          60.1574   88.0031   10.8230 C.3     1  UNL1        0.1432
     12 N          59.3627   88.5907   11.9514 N.3     1  UNL1       -0.3102
     13 H          58.6681   87.9136   12.2668 H       1  UNL1        0.1198
     14 H          58.8917   89.4369   11.6310 H       1  UNL1        0.1198
@<TRIPOS>BOND
     1     7     8    1
     2     8     1    1
     3     1     2   ar
     4     2     3   ar
     5     3     4   ar
     6     4     5   ar
     7     5     6   ar
     8     6     9    1
     9     9    10    3
    10    10    11    1
    11    11    12    1
    12     6     1   ar
    13    12    13    1
    14    12    14    1
@<TRIPOS>MOLECULE
*****
 14 14 0 0 0
SMALL
GASTEIGER

@<TRIPOS>ATOM
      1 C          63.1956   85.1714   13.0757 C.ar    1  UNL1        0.1493
      2 C          62.9650   83.6949   12.9464 C.ar    1  UNL1        0.0582
      3 C          63.4536   82.7631   14.0155 C.ar    1  UNL1        0.1020
      4 N          64.1727   83.3078   15.2139 N.ar    1  UNL1       -0.2415
      5 C          64.4033   84.7843   15.3431 C.ar    1  UNL1        0.1101
      6 C          63.9147   85.7161   14.2740 C.ar    1  UNL1        0.0947
      7 C          61.7418   85.6131   10.9682 C.3     1  UNL1        0.2525
      8 O          62.7070   86.1032   12.0065 O.3     1  UNL1       -0.4707
      9 C          64.1453   87.1927   14.4033 C.1     1  UNL1       -0.0584
     10 C          64.3758   88.6692   14.5326 C.1     1  UNL1       -0.0688
     11 C          64.6064   90.1458   14.6619 C.3     1  UNL1        0.1432
     12 N          63.4446   91.0933   14.6136 N.3     1  UNL1       -0.3102
     13 H          63.0227   91.0671   13.6853 H       1  UNL1        0.1198
     14 H          63.7690   92.0396   14.8130 H       1  UNL1        0.1198
@<TRIPOS>BOND
     1     7     8    1
     2     8     1    1
     3     1     2   ar
     4     2     3   ar
     5     3     4   ar
     6     4     5   ar
     7     5     6   ar
     8     6     9    1
     9     9    10    3
    10    10    11    1
    11    11    12    1
    12     6     1   ar
    13    12    13    1
    14    12    14    1
@<TRIPOS>MOLECULE
*****
 14 14 0 0 0
SMALL
GASTEIGER

@<TRIPOS>ATOM
      1 C          62.9963   84.9990   11.5890 C.ar    1  UNL1        0.1493
      2 C          63.1626   84.4601   10.1991 C.ar    1  UNL1        0.0582
      3 C          63.9726   83.2189    9.9679 C.ar    1  UNL1        0.1020
      4 N          64.6161   82.5167   11.1266 N.ar    1  UNL1       -0.2415
      5 C          64.4498   83.0556   12.5165 C.ar    1  UNL1        0.1101
      6 C          63.6398   84.2968   12.7477 C.ar    1  UNL1        0.0947
      7 C          61.0408   86.5688   10.9093 C.3     1  UNL1        0.2525
      8 O          62.1863   86.2402   11.8202 O.3     1  UNL1       -0.4707
      9 C          63.4735   84.8357   14.1376 C.1     1  UNL1       -0.0584
     10 C          63.3072   85.3747   15.5275 C.1     1  UNL1       -0.0688
     11 C          63.1408   85.9136   16.9175 C.3     1  UNL1        0.1432
     12 N          61.7727   86.2483   17.4334 N.3     1  UNL1       -0.3102
     13 H          61.3901   87.0294   16.9005 H       1  UNL1        0.1198
     14 H          61.8344   86.5064   18.4182 H       1  UNL1        0.1198
@<TRIPOS>BOND
     1     7     8    1
     2     8     1    1
     3     1     2   ar
     4     2     3   ar
     5     3     4   ar
     6     4     5   ar
     7     5     6   ar
     8     6     9    1
     9     9    10    3
    10    10    11    1
    11    11    12    1
    12     6     1   ar
    13    12    13    1
    14    12    14    1
@<TRIPOS>MOLECULE
*****
 14 14 0 0 0
SMALL
GASTEIGER

@<TRIPOS>ATOM
      1 C          61.8066   87.9510   10.7195 C.ar    1  UNL1        0.1493
      2 C          61.1442   89.1590   10.1263 C.ar    1  UNL1        0.0582
      3 C          60.2452   89.0122    8.9346 C.ar    1  UNL1        0.1020
      4 N          60.0085   87.6573    8.3361 N.ar    1  UNL1       -0.2415
      5 C          60.6709   86.4493    8.9293 C.ar    1  UNL1        0.1101
      6 C          61.5699   86.5961   10.1210 C.ar    1  UNL1        0.0947
      7 C          63.1551   89.4606   12.3482 C.3     1  UNL1        0.2525
      8 O          62.7056   88.0979   11.9112 O.3     1  UNL1       -0.4707
      9 C          62.2323   85.3880   10.7142 C.1     1  UNL1       -0.0584
     10 C          62.8947   84.1800   11.3073 C.1     1  UNL1       -0.0688
     11 C          63.5571   82.9719   11.9005 C.3     1  UNL1        0.1432
     12 N          64.9833   82.6555   11.5600 N.3     1  UNL1       -0.3102
     13 H          65.0522   82.4192   10.5702 H       1  UNL1        0.1198
     14 H          65.2994   81.8646   12.1212 H       1  UNL1        0.1198
@<TRIPOS>BOND
     1     7     8    1
     2     8     1    1
     3     1     2   ar
     4     2     3   ar
     5     3     4   ar
     6     4     5   ar
     7     5     6   ar
     8     6     9    1
     9     9    10    3
    10    10    11    1
    11    11    12    1
    12     6     1   ar
    13    12    13    1
    14    12    14    1
@<TRIPOS>MOLECULE
*****
 14 14 0 0 0
SMALL
GASTEIGER

@<TRIPOS>ATOM
      1 C          65.3015   91.1398   13.9034 C.ar    1  UNL1        0.1493
      2 C          66.3810   91.7540   14.7444 C.ar    1  UNL1        0.0582
      3 C          67.0647   93.0087   14.2882 C.ar    1  UNL1        0.1020
      4 N          66.6690   93.6492   12.9908 N.ar    1  UNL1       -0.2415
      5 C          65.5896   93.0350   12.1498 C.ar    1  UNL1        0.1101
      6 C          64.9058   91.7803   12.6060 C.ar    1  UNL1        0.0947
      7 C          63.5833   89.9466   15.4441 C.3     1  UNL1        0.2525
      8 O          64.6177   89.8851   14.3596 O.3     1  UNL1       -0.4707
      9 C          63.8263   91.1661   11.7649 C.1     1  UNL1       -0.0584
     10 C          62.7468   90.5520   10.9238 C.1     1  UNL1       -0.0688
     11 C          61.6672   89.9378   10.0826 C.3     1  UNL1        0.1432
     12 N          60.2943   90.5418   10.0661 N.3     1  UNL1       -0.3102
     13 H          59.8688   90.4441   10.9880 H       1  UNL1        0.1198
     14 H          59.7197   90.0613    9.3738 H       1  UNL1        0.1198
@<TRIPOS>BOND
     1     7     8    1
     2     8     1    1
     3     1     2   ar
     4     2     3   ar
     5     3     4   ar
     6     4     5   ar
     7     5     6   ar
     8     6     9    1
     9     9    10    3
    10    10    11    1
    11    11    12    1
    12     6     1   ar
    13    12    13    1
    14    12    14    1
@<TRIPOS>MOLECULE
*****
 14 14 0 0 0
SMALL
GASTEIGER

@<TRIPOS>ATOM
      1 C          62.0803   86.7954   11.1426 C.ar    1  UNL1        0.1493
      2 C          61.3428   85.9107   10.1818 C.ar    1  UNL1        0.0582
      3 C          60.6048   86.5128    9.0230 C.ar    1  UNL1        0.1020
      4 N          60.6042   87.9996    8.8251 N.ar    1  UNL1       -0.2415
      5 C          61.3417   88.8844    9.7859 C.ar    1  UNL1        0.1101
      6 C          62.0798   88.2823   10.9447 C.ar    1  UNL1        0.0947
      7 C          62.8136   84.7070   12.5030 C.3     1  UNL1        0.2525
      8 O          62.8184   86.1933   12.3014 O.3     1  UNL1       -0.4707
      9 C          62.8173   89.1671   11.9055 C.1     1  UNL1       -0.0584
     10 C          63.5548   90.0519   12.8664 C.1     1  UNL1       -0.0688
     11 C          64.2924   90.9367   13.8272 C.3     1  UNL1        0.1432
     12 N          63.6091   91.4303   15.0680 N.3     1  UNL1       -0.3102
     13 H          62.8466   92.0567   14.8100 H       1  UNL1        0.1198
     14 H          64.2803   91.9329   15.6487 H       1  UNL1        0.1198
@<TRIPOS>BOND
     1     7     8    1
     2     8     1    1
     3     1     2   ar
     4     2     3   ar
     5     3     4   ar
     6     4     5   ar
     7     5     6   ar
     8     6     9    1
     9     9    10    3
    10    10    11    1
    11    11    12    1
    12     6     1   ar
    13    12    13    1
    14    12    14    1
@<TRIPOS>MOLECULE
*****
 14 14 0 0 0
SMALL
GASTEIGER

@<TRIPOS>ATOM
      1 C          61.8519   86.0286   10.6470 C.ar    1  UNL1        0.1493
      2 C          61.8894   86.2654    9.1663 C.ar    1  UNL1        0.0582
      3 C          62.7300   85.3874    8.2874 C.ar    1  UNL1        0.1020
      4 N          63.5331   84.2726    8.8892 N.ar    1  UNL1       -0.2415
      5 C          63.4955   84.0358   10.3698 C.ar    1  UNL1        0.1101
      6 C          62.6550   84.9138   11.2487 C.ar    1  UNL1        0.0947
      7 C          60.1920   88.0083   10.9218 C.3     1  UNL1        0.2525
      8 O          61.0113   86.9066   11.5259 O.3     1  UNL1       -0.4707
      9 C          62.6175   84.6769   12.7295 C.1     1  UNL1       -0.0584
     10 C          62.5800   84.4401   14.2102 C.1     1  UNL1       -0.0688
     11 C          62.5425   84.2032   15.6910 C.3     1  UNL1        0.1432
     12 N          62.1222   85.3063   16.6165 N.3     1  UNL1       -0.3102
     13 H          62.8089   86.0597   16.5815 H       1  UNL1        0.1198
     14 H          62.0608   84.9461   17.5688 H       1  UNL1        0.1198
@<TRIPOS>BOND
     1     7     8    1
     2     8     1    1
     3     1     2   ar
     4     2     3   ar
     5     3     4   ar
     6     4     5   ar
     7     5     6   ar
     8     6     9    1
     9     9    10    3
    10    10    11    1
    11    11    12    1
    12     6     1   ar
    13    12    13    1
    14    12    14    1
@<TRIPOS>MOLECULE
*****
 14 14 0 0 0
SMALL
GASTEIGER

@<TRIPOS>ATOM
      1 C          60.7781   87.6019    9.6223 C.ar    1  UNL1        0.1493
      2 C          60.2536   88.9958    9.4434 C.ar    1  UNL1        0.0582
      3 C          60.7855   90.1120   10.2926 C.ar    1  UNL1        0.1020
      4 N          61.8418   89.8344   11.3207 N.ar    1  UNL1       -0.2415
      5 C          62.3664   88.4406   11.4995 C.ar    1  UNL1        0.1101
      6 C          61.8345   87.3243   10.6504 C.ar    1  UNL1        0.0947
      7 C          59.0754   86.7253    7.8667 C.3     1  UNL1        0.2525
      8 O          60.2463   86.4857    8.7731 O.3     1  UNL1       -0.4707
      9 C          62.3591   85.9304   10.8293 C.1     1  UNL1       -0.0584
     10 C          62.8836   84.5366   11.0082 C.1     1  UNL1       -0.0688
     11 C          63.4082   83.1427   11.1871 C.3     1  UNL1        0.1432
     12 N          64.8866   82.8897   11.1694 N.3     1  UNL1       -0.3102
     13 H          65.2552   83.0929   10.2403 H       1  UNL1        0.1198
     14 H          65.0672   81.9128   11.4007 H       1  UNL1        0.1198
@<TRIPOS>BOND
     1     7     8    1
     2     8     1    1
     3     1     2   ar
     4     2     3   ar
     5     3     4   ar
     6     4     5   ar
     7     5     6   ar
     8     6     9    1
     9     9    10    3
    10    10    11    1
    11    11    12    1
    12     6     1   ar
    13    12    13    1
    14    12    14    1
