@<TRIPOS>MOLECULE
*****
 28 31 0 0 0
SMALL
GASTEIGER

@<TRIPOS>ATOM
      1 C          64.7209   91.5212   12.8433 C.ar    1  UNL1       -0.0208
      2 C          65.4011   91.0341   14.0883 C.ar    1  UNL1       -0.0042
      3 C          65.1324   89.6487   14.5966 C.ar    1  UNL1        0.0012
      4 C          64.1835   88.7505   13.8600 C.ar    1  UNL1        0.0193
      5 C          63.5033   89.2376   12.6150 C.ar    1  UNL1        0.0012
      6 C          63.7720   90.6230   12.1067 C.ar    1  UNL1       -0.0042
      7 C          63.9148   87.3650   14.3683 C.ar    1  UNL1        0.1015
      8 C          63.7689   87.1218   15.8412 C.ar    1  UNL1        0.0258
      9 C          63.5002   85.7363   16.3496 C.ar    1  UNL1        0.0641
     10 C          63.3774   84.5942   15.3850 C.ar    1  UNL1        0.2805
     11 O          63.1087   83.2088   15.8933 O.2     1  UNL1       -0.2652
     12 N          63.5233   84.8375   13.9121 N.ar    1  UNL1       -0.1945
     13 N          63.7920   86.2229   13.4037 N.ar    1  UNL1       -0.1626
     14 C          63.4005   83.6953   12.9475 C.ar    1  UNL1        0.0861
     15 C          64.2378   83.6713   11.7031 C.ar    1  UNL1        0.0216
     16 C          64.1150   82.5291   10.7385 C.ar    1  UNL1        0.0312
     17 C          63.1549   81.4111   11.0183 C.ar    1  UNL1        0.1402
     18 F          63.0321   80.2689   10.0537 F       1  UNL1       -0.2042
     19 C          62.3177   81.4352   12.2626 C.ar    1  UNL1        0.0312
     20 C          62.4405   82.5773   13.2272 C.ar    1  UNL1        0.0216
     21 C          64.9897   92.9067   12.3349 C.3     1  UNL1        0.0437
     22 C          66.3999   93.4069   12.2304 C.3     1  UNL1        0.0768
     23 C          68.0453   92.0618    9.7539 C.3     1  UNL1        0.0173
     24 C          67.6115   93.4945    9.8493 C.3     1  UNL1        0.0576
     25 C          67.8578   94.5605    8.8231 C.3     1  UNL1        0.0174
     26 C          67.2537   95.8376    9.3272 C.3     1  UNL1        0.0187
     27 C          66.6340   95.5609   10.6650 C.3     1  UNL1        0.0721
     28 N          66.8552   94.1128   10.9876 N.3     1  UNL1       -0.2737
@<TRIPOS>BOND
     1    24    23    1
     2    24    25    1
     3    25    26    1
     4    26    27    1
     5    27    28    1
     6    28    22    1
     7    22    21    1
     8    21     1    1
     9     1     2   ar
    10     2     3   ar
    11     3     4   ar
    12     4     7    1
    13     7     8   ar
    14     8     9   ar
    15     9    10   ar
    16    10    11    2
    17    10    12   ar
    18    12    14    1
    19    14    15   ar
    20    15    16   ar
    21    16    17   ar
    22    17    18    1
    23    17    19   ar
    24    19    20   ar
    25    12    13   ar
    26     4     5   ar
    27     5     6   ar
    28    28    24    1
    29     6     1   ar
    30    13     7   ar
    31    20    14   ar
@<TRIPOS>MOLECULE
*****
 28 31 0 0 0
SMALL
GASTEIGER

@<TRIPOS>ATOM
      1 C          65.5760   92.3065   12.8894 C.ar    1  UNL1       -0.0208
      2 C          66.2490   91.8769   14.1592 C.ar    1  UNL1       -0.0042
      3 C          65.7094   90.7138   14.9376 C.ar    1  UNL1        0.0012
      4 C          64.4968   89.9803   14.4462 C.ar    1  UNL1        0.0193
      5 C          63.8238   90.4099   13.1764 C.ar    1  UNL1        0.0012
      6 C          64.3634   91.5730   12.3980 C.ar    1  UNL1       -0.0042
      7 C          63.9572   88.8172   15.2246 C.ar    1  UNL1        0.1015
      8 C          63.3905   89.0312   16.5968 C.ar    1  UNL1        0.0258
      9 C          62.8508   87.8681   17.3753 C.ar    1  UNL1        0.0641
     10 C          62.8780   86.4909   16.7815 C.ar    1  UNL1        0.2805
     11 O          62.3384   85.3277   17.5599 O.2     1  UNL1       -0.2652
     12 N          63.4447   86.2768   15.4092 N.ar    1  UNL1       -0.1945
     13 N          63.9843   87.4400   14.6308 N.ar    1  UNL1       -0.1626
     14 C          63.4719   84.8997   14.8154 C.ar    1  UNL1        0.0861
     15 C          64.6007   84.4932   13.9150 C.ar    1  UNL1        0.0216
     16 C          64.6279   83.1160   13.3212 C.ar    1  UNL1        0.0312
     17 C          63.5261   82.1453   13.6278 C.ar    1  UNL1        0.1402
     18 F          63.5533   80.7681   13.0340 F       1  UNL1       -0.2042
     19 C          62.3974   82.5517   14.5282 C.ar    1  UNL1        0.0312
     20 C          62.3702   83.9289   15.1220 C.ar    1  UNL1        0.0216
     21 C          66.1157   93.4697   12.1109 C.3     1  UNL1        0.0437
     22 C          65.4932   93.8481   10.7997 C.3     1  UNL1        0.0768
     23 C          68.1605   93.2593    9.0141 C.3     1  UNL1        0.0173
     24 C          67.4095   94.5562    9.0758 C.3     1  UNL1        0.0576
     25 C          67.7525   95.8102    8.3276 C.3     1  UNL1        0.0174
     26 C          66.7385   96.8559    8.6859 C.3     1  UNL1        0.0187
     27 C          65.7687   96.2482    9.6556 C.3     1  UNL1        0.0721
     28 N          66.1835   94.8269    9.8965 N.3     1  UNL1       -0.2737
@<TRIPOS>BOND
     1    24    23    1
     2    24    25    1
     3    25    26    1
     4    26    27    1
     5    27    28    1
     6    28    22    1
     7    22    21    1
     8    21     1    1
     9     1     2   ar
    10     2     3   ar
    11     3     4   ar
    12     4     7    1
    13     7     8   ar
    14     8     9   ar
    15     9    10   ar
    16    10    11    2
    17    10    12   ar
    18    12    14    1
    19    14    15   ar
    20    15    16   ar
    21    16    17   ar
    22    17    18    1
    23    17    19   ar
    24    19    20   ar
    25    12    13   ar
    26     4     5   ar
    27     5     6   ar
    28    28    24    1
    29     6     1   ar
    30    13     7   ar
    31    20    14   ar
@<TRIPOS>MOLECULE
*****
 28 31 0 0 0
SMALL
GASTEIGER

@<TRIPOS>ATOM
      1 C          64.7222   91.3750   12.8697 C.ar    1  UNL1       -0.0208
      2 C          63.8091   90.4734   12.0929 C.ar    1  UNL1       -0.0042
      3 C          63.5264   89.0859   12.5875 C.ar    1  UNL1        0.0012
      4 C          64.1567   88.5999   13.8589 C.ar    1  UNL1        0.0193
      5 C          65.0698   89.5015   14.6357 C.ar    1  UNL1        0.0012
      6 C          65.3525   90.8890   14.1411 C.ar    1  UNL1       -0.0042
      7 C          63.8740   87.2123   14.3536 C.ar    1  UNL1        0.1015
      8 C          63.7095   86.9587   15.8228 C.ar    1  UNL1        0.0258
      9 C          63.4267   85.5711   16.3174 C.ar    1  UNL1        0.0641
     10 C          63.3084   84.4370   15.3427 C.ar    1  UNL1        0.2805
     11 O          63.0257   83.0495   15.8373 O.2     1  UNL1       -0.2652
     12 N          63.4729   84.6906   13.8734 N.ar    1  UNL1       -0.1945
     13 N          63.7556   86.0782   13.3789 N.ar    1  UNL1       -0.1626
     14 C          63.3546   83.5566   12.8988 C.ar    1  UNL1        0.0861
     15 C          64.1080   83.6002   11.6024 C.ar    1  UNL1        0.0216
     16 C          63.9897   82.4661   10.6277 C.ar    1  UNL1        0.0312
     17 C          63.1180   81.2885   10.9495 C.ar    1  UNL1        0.1402
     18 F          62.9997   80.1545    9.9748 F       1  UNL1       -0.2042
     19 C          62.3646   81.2450   12.2458 C.ar    1  UNL1        0.0312
     20 C          62.4829   82.3791   13.2204 C.ar    1  UNL1        0.0216
     21 C          65.0049   92.7626   12.3750 C.3     1  UNL1        0.0437
     22 C          66.4191   93.2558   12.2926 C.3     1  UNL1        0.0768
     23 C          66.5326   95.9710   10.4858 C.3     1  UNL1        0.0173
     24 C          67.1390   94.6470   10.1265 C.3     1  UNL1        0.0576
     25 C          67.9041   94.3385    8.8737 C.3     1  UNL1        0.0174
     26 C          68.3248   92.8997    8.9299 C.3     1  UNL1        0.0187
     27 C          67.8197   92.3190   10.2175 C.3     1  UNL1        0.0721
     28 N          67.0869   93.3989   10.9570 N.3     1  UNL1       -0.2737
@<TRIPOS>BOND
     1    24    23    1
     2    24    25    1
     3    25    26    1
     4    26    27    1
     5    27    28    1
     6    28    22    1
     7    22    21    1
     8    21     1    1
     9     1     2   ar
    10     2     3   ar
    11     3     4   ar
    12     4     7    1
    13     7     8   ar
    14     8     9   ar
    15     9    10   ar
    16    10    11    2
    17    10    12   ar
    18    12    14    1
    19    14    15   ar
    20    15    16   ar
    21    16    17   ar
    22    17    18    1
    23    17    19   ar
    24    19    20   ar
    25    12    13   ar
    26     4     5   ar
    27     5     6   ar
    28    28    24    1
    29     6     1   ar
    30    13     7   ar
    31    20    14   ar
@<TRIPOS>MOLECULE
*****
 28 31 0 0 0
SMALL
GASTEIGER

@<TRIPOS>ATOM
      1 C          63.0630   86.3891   13.0798 C.ar    1  UNL1       -0.0208
      2 C          63.9385   86.6386   14.2719 C.ar    1  UNL1       -0.0042
      3 C          64.5426   87.9944   14.4881 C.ar    1  UNL1        0.0012
      4 C          64.2712   89.1007   13.5122 C.ar    1  UNL1        0.0193
      5 C          63.3957   88.8512   12.3200 C.ar    1  UNL1        0.0012
      6 C          62.7916   87.4954   12.1039 C.ar    1  UNL1       -0.0042
      7 C          64.8754   90.4565   13.7284 C.ar    1  UNL1        0.1015
      8 C          65.0069   91.0061   15.1179 C.ar    1  UNL1        0.0258
      9 C          65.6111   92.3619   15.3341 C.ar    1  UNL1        0.0641
     10 C          66.0837   93.1682   14.1608 C.ar    1  UNL1        0.2805
     11 O          66.6878   94.5240   14.3770 O.2     1  UNL1       -0.2652
     12 N          65.9521   92.6186   12.7713 N.ar    1  UNL1       -0.1945
     13 N          65.3479   91.2628   12.5551 N.ar    1  UNL1       -0.1626
     14 C          66.4246   93.4249   11.5980 C.ar    1  UNL1        0.0861
     15 C          66.0859   94.8832   11.5049 C.ar    1  UNL1        0.0216
     16 C          66.5584   95.6895   10.3316 C.ar    1  UNL1        0.0312
     17 C          67.3697   95.0374    9.2514 C.ar    1  UNL1        0.1402
     18 F          67.8423   95.8437    8.0781 F       1  UNL1       -0.2042
     19 C          67.7084   93.5792    9.3446 C.ar    1  UNL1        0.0312
     20 C          67.2359   92.7729   10.5179 C.ar    1  UNL1        0.0216
     21 C          62.4588   85.0332   12.8636 C.3     1  UNL1        0.0437
     22 C          62.6558   83.9527   13.8852 C.3     1  UNL1        0.0768
     23 C          64.1327   82.5800   11.3193 C.3     1  UNL1        0.0173
     24 C          63.2400   81.8805   12.3010 C.3     1  UNL1        0.0576
     25 C          62.8694   80.4272   12.2756 C.3     1  UNL1        0.0174
     26 C          61.9615   80.1600   13.4394 C.3     1  UNL1        0.0187
     27 C          61.7709   81.4482   14.1840 C.3     1  UNL1        0.0721
     28 N          62.5611   82.5114   13.4804 N.3     1  UNL1       -0.2737
@<TRIPOS>BOND
     1    24    23    1
     2    24    25    1
     3    25    26    1
     4    26    27    1
     5    27    28    1
     6    28    22    1
     7    22    21    1
     8    21     1    1
     9     1     2   ar
    10     2     3   ar
    11     3     4   ar
    12     4     7    1
    13     7     8   ar
    14     8     9   ar
    15     9    10   ar
    16    10    11    2
    17    10    12   ar
    18    12    14    1
    19    14    15   ar
    20    15    16   ar
    21    16    17   ar
    22    17    18    1
    23    17    19   ar
    24    19    20   ar
    25    12    13   ar
    26     4     5   ar
    27     5     6   ar
    28    28    24    1
    29     6     1   ar
    30    13     7   ar
    31    20    14   ar
@<TRIPOS>MOLECULE
*****
 28 31 0 0 0
SMALL
GASTEIGER

@<TRIPOS>ATOM
      1 C          63.7915   82.9149   14.5022 C.ar    1  UNL1       -0.0208
      2 C          62.6959   83.4657   15.3661 C.ar    1  UNL1       -0.0042
      3 C          62.6659   84.9282   15.6978 C.ar    1  UNL1        0.0012
      4 C          63.7316   85.8399   15.1657 C.ar    1  UNL1        0.0193
      5 C          64.8272   85.2891   14.3018 C.ar    1  UNL1        0.0012
      6 C          64.8571   83.8266   13.9701 C.ar    1  UNL1       -0.0042
      7 C          63.7016   87.3025   15.4974 C.ar    1  UNL1        0.1015
      8 C          63.0763   87.7682   16.7789 C.ar    1  UNL1        0.0258
      9 C          63.0463   89.2308   17.1106 C.ar    1  UNL1        0.0641
     10 C          63.6416   90.2277   16.1609 C.ar    1  UNL1        0.2805
     11 O          63.6116   91.6902   16.4926 O.2     1  UNL1       -0.2652
     12 N          64.2668   89.7619   14.8794 N.ar    1  UNL1       -0.1945
     13 N          64.2968   88.2993   14.5477 N.ar    1  UNL1       -0.1626
     14 C          64.8621   90.7587   13.9296 C.ar    1  UNL1        0.0861
     15 C          64.1186   91.1460   12.6857 C.ar    1  UNL1        0.0216
     16 C          64.7138   92.1429   11.7359 C.ar    1  UNL1        0.0312
     17 C          66.0526   92.7523   12.0301 C.ar    1  UNL1        0.1402
     18 F          66.6478   93.7491   11.0803 F       1  UNL1       -0.2042
     19 C          66.7960   92.3650   13.2740 C.ar    1  UNL1        0.0312
     20 C          66.2007   91.3681   14.2237 C.ar    1  UNL1        0.0216
     21 C          63.8215   81.4523   14.1705 C.3     1  UNL1        0.0437
     22 C          62.6390   80.8089   13.5089 C.3     1  UNL1        0.0768
     23 C          63.4341   82.5402   10.8595 C.3     1  UNL1        0.0173
     24 C          63.1242   81.0730   10.8936 C.3     1  UNL1        0.0576
     25 C          63.1254   80.1440    9.7159 C.3     1  UNL1        0.0174
     26 C          62.7607   78.7739   10.2059 C.3     1  UNL1        0.0187
     27 C          62.5341   78.8563   11.6864 C.3     1  UNL1        0.0721
     28 N          62.7588   80.2772   12.1114 N.3     1  UNL1       -0.2737
@<TRIPOS>BOND
     1    24    23    1
     2    24    25    1
     3    25    26    1
     4    26    27    1
     5    27    28    1
     6    28    22    1
     7    22    21    1
     8    21     1    1
     9     1     2   ar
    10     2     3   ar
    11     3     4   ar
    12     4     7    1
    13     7     8   ar
    14     8     9   ar
    15     9    10   ar
    16    10    11    2
    17    10    12   ar
    18    12    14    1
    19    14    15   ar
    20    15    16   ar
    21    16    17   ar
    22    17    18    1
    23    17    19   ar
    24    19    20   ar
    25    12    13   ar
    26     4     5   ar
    27     5     6   ar
    28    28    24    1
    29     6     1   ar
    30    13     7   ar
    31    20    14   ar
@<TRIPOS>MOLECULE
*****
 28 31 0 0 0
SMALL
GASTEIGER

@<TRIPOS>ATOM
      1 C          62.3843   87.1560   11.9069 C.ar    1  UNL1       -0.0208
      2 C          63.3181   87.1343   13.0805 C.ar    1  UNL1       -0.0042
      3 C          64.0699   88.3744   13.4638 C.ar    1  UNL1        0.0012
      4 C          63.8878   89.6362   12.6735 C.ar    1  UNL1        0.0193
      5 C          62.9540   89.6580   11.4999 C.ar    1  UNL1        0.0012
      6 C          62.2022   88.4179   11.1166 C.ar    1  UNL1       -0.0042
      7 C          64.6396   90.8764   13.0569 C.ar    1  UNL1        0.1015
      8 C          64.9173   91.1686   14.5017 C.ar    1  UNL1        0.0258
      9 C          65.6691   92.4087   14.8850 C.ar    1  UNL1        0.0641
     10 C          66.1432   93.3566   13.8236 C.ar    1  UNL1        0.2805
     11 O          66.8950   94.5967   14.2069 O.2     1  UNL1       -0.2652
     12 N          65.8655   93.0643   12.3787 N.ar    1  UNL1       -0.1945
     13 N          65.1137   91.8243   11.9954 N.ar    1  UNL1       -0.1626
     14 C          66.3396   94.0122   11.3172 C.ar    1  UNL1        0.0861
     15 C          67.0405   93.4855   10.1001 C.ar    1  UNL1        0.0216
     16 C          67.5146   94.4334    9.0386 C.ar    1  UNL1        0.0312
     17 C          67.2878   95.9080    9.1943 C.ar    1  UNL1        0.1402
     18 F          67.7619   96.8559    8.1328 F       1  UNL1       -0.2042
     19 C          66.5869   96.4347   10.4114 C.ar    1  UNL1        0.0312
     20 C          66.1128   95.4868   11.4728 C.ar    1  UNL1        0.0216
     21 C          61.6325   85.9159   11.5235 C.3     1  UNL1        0.0437
     22 C          62.3795   84.6918   11.0837 C.3     1  UNL1        0.0768
     23 C          63.8788   81.8670   10.4340 C.3     1  UNL1        0.0173
     24 C          63.4480   82.3452   11.7889 C.3     1  UNL1        0.0576
     25 C          63.6307   81.6090   13.0830 C.3     1  UNL1        0.0174
     26 C          63.0545   82.4525   14.1815 C.3     1  UNL1        0.0187
     27 C          62.5156   83.7100   13.5662 C.3     1  UNL1        0.0721
     28 N          62.7589   83.6436   12.0875 N.3     1  UNL1       -0.2737
@<TRIPOS>BOND
     1    24    23    1
     2    24    25    1
     3    25    26    1
     4    26    27    1
     5    27    28    1
     6    28    22    1
     7    22    21    1
     8    21     1    1
     9     1     2   ar
    10     2     3   ar
    11     3     4   ar
    12     4     7    1
    13     7     8   ar
    14     8     9   ar
    15     9    10   ar
    16    10    11    2
    17    10    12   ar
    18    12    14    1
    19    14    15   ar
    20    15    16   ar
    21    16    17   ar
    22    17    18    1
    23    17    19   ar
    24    19    20   ar
    25    12    13   ar
    26     4     5   ar
    27     5     6   ar
    28    28    24    1
    29     6     1   ar
    30    13     7   ar
    31    20    14   ar
@<TRIPOS>MOLECULE
*****
 28 31 0 0 0
SMALL
GASTEIGER

@<TRIPOS>ATOM
      1 C          63.2413   84.5907   14.6483 C.ar    1  UNL1       -0.0208
      2 C          63.9215   85.5238   15.6056 C.ar    1  UNL1       -0.0042
      3 C          64.1990   86.9415   15.2017 C.ar    1  UNL1        0.0012
      4 C          63.7961   87.4260   13.8405 C.ar    1  UNL1        0.0193
      5 C          63.1159   86.4930   12.8832 C.ar    1  UNL1        0.0012
      6 C          62.8384   85.0753   13.2871 C.ar    1  UNL1       -0.0042
      7 C          64.0736   88.8438   13.4366 C.ar    1  UNL1        0.1015
      8 C          63.2540   89.4910   12.3600 C.ar    1  UNL1        0.0258
      9 C          63.5314   90.9088   11.9561 C.ar    1  UNL1        0.0641
     10 C          64.6285   91.6793   12.6290 C.ar    1  UNL1        0.2805
     11 O          64.9060   93.0970   12.2252 O.2     1  UNL1       -0.2652
     12 N          65.4482   91.0320   13.7057 N.ar    1  UNL1       -0.1945
     13 N          65.1707   89.6143   14.1095 N.ar    1  UNL1       -0.1626
     14 C          66.5453   91.8024   14.3786 C.ar    1  UNL1        0.0861
     15 C          67.9112   91.8571   13.7608 C.ar    1  UNL1        0.0216
     16 C          69.0083   92.6276   14.4337 C.ar    1  UNL1        0.0312
     17 C          68.7395   93.3434   15.7243 C.ar    1  UNL1        0.1402
     18 F          69.8366   94.1138   16.3972 F       1  UNL1       -0.2042
     19 C          67.3737   93.2886   16.3419 C.ar    1  UNL1        0.0312
     20 C          66.2766   92.5182   15.6691 C.ar    1  UNL1        0.0216
     21 C          62.9638   83.1729   15.0522 C.3     1  UNL1        0.0437
     22 C          63.7521   82.0516   14.4430 C.3     1  UNL1        0.0768
     23 C          62.0180   79.6599   13.0566 C.3     1  UNL1        0.0173
     24 C          62.8526   80.6760   12.3349 C.3     1  UNL1        0.0576
     25 C          63.0367   80.7712   10.8493 C.3     1  UNL1        0.0174
     26 C          63.9476   81.9295   10.5683 C.3     1  UNL1        0.0187
     27 C          64.3264   82.5501   11.8804 C.3     1  UNL1        0.0721
     28 N          63.6497   81.7754   12.9721 N.3     1  UNL1       -0.2737
@<TRIPOS>BOND
     1    24    23    1
     2    24    25    1
     3    25    26    1
     4    26    27    1
     5    27    28    1
     6    28    22    1
     7    22    21    1
     8    21     1    1
     9     1     2   ar
    10     2     3   ar
    11     3     4   ar
    12     4     7    1
    13     7     8   ar
    14     8     9   ar
    15     9    10   ar
    16    10    11    2
    17    10    12   ar
    18    12    14    1
    19    14    15   ar
    20    15    16   ar
    21    16    17   ar
    22    17    18    1
    23    17    19   ar
    24    19    20   ar
    25    12    13   ar
    26     4     5   ar
    27     5     6   ar
    28    28    24    1
    29     6     1   ar
    30    13     7   ar
    31    20    14   ar
@<TRIPOS>MOLECULE
*****
 28 31 0 0 0
SMALL
GASTEIGER

@<TRIPOS>ATOM
      1 C          60.0931   89.1793    8.6145 C.ar    1  UNL1       -0.0208
      2 C          60.8076   89.9119    9.7112 C.ar    1  UNL1       -0.0042
      3 C          61.5581   89.1457   10.7598 C.ar    1  UNL1        0.0012
      4 C          61.5942   87.6469   10.7116 C.ar    1  UNL1        0.0193
      5 C          60.8798   86.9143    9.6149 C.ar    1  UNL1        0.0012
      6 C          60.1293   87.6806    8.5663 C.ar    1  UNL1       -0.0042
      7 C          62.3449   86.8807   11.7603 C.ar    1  UNL1        0.1015
      8 C          63.2855   87.5971   12.6833 C.ar    1  UNL1        0.0258
      9 C          64.0361   86.8309   13.7319 C.ar    1  UNL1        0.0641
     10 C          63.8460   85.3483   13.8575 C.ar    1  UNL1        0.2805
     11 O          64.5966   84.5821   14.9061 O.2     1  UNL1       -0.2652
     12 N          62.9053   84.6319   12.9344 N.ar    1  UNL1       -0.1945
     13 N          62.1548   85.3981   11.8859 N.ar    1  UNL1       -0.1626
     14 C          62.7153   83.1493   13.0600 C.ar    1  UNL1        0.0861
     15 C          62.0229   82.5812   14.2634 C.ar    1  UNL1        0.0216
     16 C          61.8328   81.0986   14.3889 C.ar    1  UNL1        0.0312
     17 C          62.3351   80.1841   13.3112 C.ar    1  UNL1        0.1402
     18 F          62.1450   78.7015   13.4367 F       1  UNL1       -0.2042
     19 C          63.0274   80.7522   12.1079 C.ar    1  UNL1        0.0312
     20 C          63.2175   82.2348   11.9823 C.ar    1  UNL1        0.0216
     21 C          59.3425   89.9456    7.5659 C.3     1  UNL1        0.0437
     22 C          59.5627   89.6419    6.1136 C.3     1  UNL1        0.0768
     23 C          57.1890   91.5362    4.9192 C.3     1  UNL1        0.0173
     24 C          58.6475   91.6327    4.5824 C.3     1  UNL1        0.0576
     25 C          59.2710   92.6168    3.6375 C.3     1  UNL1        0.0174
     26 C          60.7475   92.3543    3.6025 C.3     1  UNL1        0.0187
     27 C          61.0364   91.2079    4.5258 C.3     1  UNL1        0.0721
     28 N          59.7386   90.7620    5.1314 N.3     1  UNL1       -0.2737
@<TRIPOS>BOND
     1    24    23    1
     2    24    25    1
     3    25    26    1
     4    26    27    1
     5    27    28    1
     6    28    22    1
     7    22    21    1
     8    21     1    1
     9     1     2   ar
    10     2     3   ar
    11     3     4   ar
    12     4     7    1
    13     7     8   ar
    14     8     9   ar
    15     9    10   ar
    16    10    11    2
    17    10    12   ar
    18    12    14    1
    19    14    15   ar
    20    15    16   ar
    21    16    17   ar
    22    17    18    1
    23    17    19   ar
    24    19    20   ar
    25    12    13   ar
    26     4     5   ar
    27     5     6   ar
    28    28    24    1
    29     6     1   ar
    30    13     7   ar
    31    20    14   ar
@<TRIPOS>MOLECULE
*****
 28 31 0 0 0
SMALL
GASTEIGER

@<TRIPOS>ATOM
      1 C          60.0303   87.9379    7.8791 C.ar    1  UNL1       -0.0208
      2 C          60.4703   86.5529    8.2506 C.ar    1  UNL1       -0.0042
      3 C          61.2747   86.3306    9.4970 C.ar    1  UNL1        0.0012
      4 C          61.6391   87.4933   10.3718 C.ar    1  UNL1        0.0193
      5 C          61.1991   88.8783   10.0003 C.ar    1  UNL1        0.0012
      6 C          60.3947   89.1006    8.7540 C.ar    1  UNL1       -0.0042
      7 C          62.4436   87.2709   11.6182 C.ar    1  UNL1        0.1015
      8 C          62.8469   85.8810   12.0125 C.ar    1  UNL1        0.0258
      9 C          63.6514   85.6586   13.2590 C.ar    1  UNL1        0.0641
     10 C          64.0525   86.8262   14.1110 C.ar    1  UNL1        0.2805
     11 O          64.8569   86.6039   15.3574 O.2     1  UNL1       -0.2652
     12 N          63.6490   88.2161   13.7166 N.ar    1  UNL1       -0.1945
     13 N          62.8446   88.4384   12.4703 N.ar    1  UNL1       -0.1626
     14 C          64.0501   89.3837   14.5687 C.ar    1  UNL1        0.0861
     15 C          63.3528   89.6350   15.8728 C.ar    1  UNL1        0.0216
     16 C          63.7538   90.8026   16.7248 C.ar    1  UNL1        0.0312
     17 C          64.8522   91.7187   16.2728 C.ar    1  UNL1        0.1402
     18 F          65.2533   92.8863   17.1248 F       1  UNL1       -0.2042
     19 C          65.5495   91.4673   14.9687 C.ar    1  UNL1        0.0312
     20 C          65.1484   90.2998   14.1167 C.ar    1  UNL1        0.0216
     21 C          59.2258   88.1603    6.6327 C.3     1  UNL1        0.0437
     22 C          58.4699   89.4424    6.4467 C.3     1  UNL1        0.0768
     23 C          56.7208   91.7039    4.8733 C.3     1  UNL1        0.0173
     24 C          58.2122   91.5510    4.8242 C.3     1  UNL1        0.0576
     25 C          59.1614   92.4107    4.0433 C.3     1  UNL1        0.0174
     26 C          60.5521   91.9025    4.2838 C.3     1  UNL1        0.0187
     27 C          60.4623   90.7287    5.2135 C.3     1  UNL1        0.0721
     28 N          59.0161   90.5115    5.5474 N.3     1  UNL1       -0.2737
@<TRIPOS>BOND
     1    24    23    1
     2    24    25    1
     3    25    26    1
     4    26    27    1
     5    27    28    1
     6    28    22    1
     7    22    21    1
     8    21     1    1
     9     1     2   ar
    10     2     3   ar
    11     3     4   ar
    12     4     7    1
    13     7     8   ar
    14     8     9   ar
    15     9    10   ar
    16    10    11    2
    17    10    12   ar
    18    12    14    1
    19    14    15   ar
    20    15    16   ar
    21    16    17   ar
    22    17    18    1
    23    17    19   ar
    24    19    20   ar
    25    12    13   ar
    26     4     5   ar
    27     5     6   ar
    28    28    24    1
    29     6     1   ar
    30    13     7   ar
    31    20    14   ar
