@<TRIPOS>MOLECULE
*****
 26 28 0 0 0
SMALL
GASTEIGER

@<TRIPOS>ATOM
      1 C          63.1733   88.7244   12.3695 C.ar    1  UNL1        0.0873
      2 C          62.0421   88.8644   11.3945 C.ar    1  UNL1        0.0537
      3 C          61.2455   87.6589   10.9917 C.ar    1  UNL1        0.1388
      4 N          61.5802   86.3134   11.5640 N.ar    1  UNL1       -0.1948
      5 C          62.7115   86.1734   12.5390 C.ar    1  UNL1        0.2539
      6 N          63.5080   87.3789   12.9418 N.ar    1  UNL1       -0.2099
      7 N          63.0462   84.8278   13.1113 N.ar    1  UNL1       -0.2008
      8 N          62.7288   83.5009   12.4880 N.ar    1  UNL1       -0.1673
      9 C          63.2435   82.4259   13.3988 C.ar    1  UNL1        0.0806
     10 C          63.1407   80.9479   13.1645 C.3     1  UNL1        0.0540
     11 C          63.8790   83.0885   14.5851 C.ar    1  UNL1        0.0313
     12 C          63.7570   84.5729   14.4073 C.ar    1  UNL1        0.0651
     13 C          64.2580   85.6189   15.3587 C.3     1  UNL1        0.0523
     14 C          65.0047   92.2406   12.1892 C.ar    1  UNL1        0.1388
     15 C          65.5630   92.3410   13.5778 C.ar    1  UNL1        0.0369
     16 C          65.3247   91.2358   14.5637 C.ar    1  UNL1        0.0032
     17 C          64.5282   90.0303   14.1609 C.ar    1  UNL1        0.0017
     18 C          63.9699   89.9300   12.7723 C.ar    1  UNL1        0.0209
     19 C          64.2082   91.0351   11.7865 C.ar    1  UNL1        0.0384
     20 C          66.1330   94.4968   11.5677 C.3     1  UNL1        0.2525
     21 O          65.2430   93.3457   11.2034 O.3     1  UNL1       -0.4714
     22 N          60.1143   87.7989   10.0167 N.am    1  UNL1       -0.2692
     23 C          60.1392   87.0375    8.7246 C.2     1  UNL1        0.2277
     24 C          59.0080   87.1775    7.7496 C.3     1  UNL1        0.0950
     25 O          61.2953   86.1359    8.4075 O.2     1  UNL1       -0.2747
     26 H          59.3555   88.3906   10.2248 H       1  UNL1        0.1563
@<TRIPOS>BOND
     1    20    21    1
     2    21    14    1
     3    14    15   ar
     4    15    16   ar
     5    16    17   ar
     6    17    18   ar
     7    18     1    1
     8     1     2   ar
     9     2     3   ar
    10     3    22    1
    11    22    23   am
    12    23    24    1
    13    23    25    2
    14     3     4   ar
    15     4     5   ar
    16     5     7    1
    17     7     8   ar
    18     8     9   ar
    19     9    10    1
    20     9    11   ar
    21    11    12   ar
    22    12    13    1
    23     5     6   ar
    24    18    19   ar
    25    19    14   ar
    26     6     1   ar
    27    12     7   ar
    28    22    26    1
@<TRIPOS>MOLECULE
*****
 26 28 0 0 0
SMALL
GASTEIGER

@<TRIPOS>ATOM
      1 C          64.0094   89.3121   13.6482 C.ar    1  UNL1        0.0873
      2 C          63.3448   89.6280   12.3411 C.ar    1  UNL1        0.0537
      3 C          62.7624   88.5236   11.5096 C.ar    1  UNL1        0.1388
      4 N          62.8447   87.1034   11.9853 N.ar    1  UNL1       -0.1948
      5 C          63.5094   86.7876   13.2924 C.ar    1  UNL1        0.2539
      6 N          64.0917   87.8919   14.1238 N.ar    1  UNL1       -0.2099
      7 N          63.5917   85.3674   13.7681 N.ar    1  UNL1       -0.2008
      8 N          63.6871   84.1499   12.8970 N.ar    1  UNL1       -0.1673
      9 C          63.7474   82.9454   13.7889 C.ar    1  UNL1        0.0806
     10 C          63.8481   81.5184   13.3376 C.3     1  UNL1        0.0540
     11 C          63.6892   83.4183   15.2112 C.ar    1  UNL1        0.0313
     12 C          63.5930   84.9152   15.1983 C.ar    1  UNL1        0.0651
     13 C          63.5123   85.8039   16.4040 C.3     1  UNL1        0.0523
     14 C          66.4152   92.2289   14.8544 C.ar    1  UNL1        0.1388
     15 C          65.7566   92.6251   16.1425 C.ar    1  UNL1        0.0369
     16 C          64.5156   91.9169   16.5992 C.ar    1  UNL1        0.0032
     17 C          63.9332   90.8126   15.7678 C.ar    1  UNL1        0.0017
     18 C          64.5918   90.4165   14.4797 C.ar    1  UNL1        0.0209
     19 C          65.8328   91.1246   14.0230 C.ar    1  UNL1        0.0384
     20 C          68.8456   93.0276   15.3069 C.3     1  UNL1        0.2525
     21 O          67.6561   92.9370   14.3977 O.3     1  UNL1       -0.4714
     22 N          62.0978   88.8395   10.2026 N.am    1  UNL1       -0.2692
     23 C          60.6067   88.7376   10.0754 C.2     1  UNL1        0.2277
     24 C          59.9421   89.0535    8.7684 C.3     1  UNL1        0.0950
     25 O          59.7802   88.3198   11.2554 O.2     1  UNL1       -0.2747
     26 H          62.6403   89.1137    9.4281 H       1  UNL1        0.1563
@<TRIPOS>BOND
     1    20    21    1
     2    21    14    1
     3    14    15   ar
     4    15    16   ar
     5    16    17   ar
     6    17    18   ar
     7    18     1    1
     8     1     2   ar
     9     2     3   ar
    10     3    22    1
    11    22    23   am
    12    23    24    1
    13    23    25    2
    14     3     4   ar
    15     4     5   ar
    16     5     7    1
    17     7     8   ar
    18     8     9   ar
    19     9    10    1
    20     9    11   ar
    21    11    12   ar
    22    12    13    1
    23     5     6   ar
    24    18    19   ar
    25    19    14   ar
    26     6     1   ar
    27    12     7   ar
    28    22    26    1
@<TRIPOS>MOLECULE
*****
 26 28 0 0 0
SMALL
GASTEIGER

@<TRIPOS>ATOM
      1 C          63.2052   89.3317   12.0728 C.ar    1  UNL1        0.0873
      2 C          62.2086   89.7756   11.0434 C.ar    1  UNL1        0.0537
      3 C          61.3288   88.7662   10.3671 C.ar    1  UNL1        0.1388
      4 N          61.4457   87.3131   10.7202 N.ar    1  UNL1       -0.1948
      5 C          62.4424   86.8693   11.7497 C.ar    1  UNL1        0.2539
      6 N          63.3221   87.8786   12.4260 N.ar    1  UNL1       -0.2099
      7 N          62.5593   85.4161   12.1028 N.ar    1  UNL1       -0.2008
      8 N          62.3223   84.8160   13.4569 N.ar    1  UNL1       -0.1673
      9 C          62.5503   83.3369   13.3548 C.ar    1  UNL1        0.0806
     10 C          62.4228   82.3459   14.4736 C.3     1  UNL1        0.0540
     11 C          62.9281   83.0229   11.9376 C.ar    1  UNL1        0.0313
     12 C          62.9337   84.3079   11.1638 C.ar    1  UNL1        0.0651
     13 C          63.2569   84.4583    9.7067 C.3     1  UNL1        0.0523
     14 C          65.3890   92.5873   12.6909 C.ar    1  UNL1        0.1388
     15 C          65.8443   92.3596   14.1018 C.ar    1  UNL1        0.0369
     16 C          65.4200   91.1226   14.8364 C.ar    1  UNL1        0.0032
     17 C          64.5403   90.1133   14.1601 C.ar    1  UNL1        0.0017
     18 C          64.0849   90.3410   12.7492 C.ar    1  UNL1        0.0209
     19 C          64.5093   91.5781   12.0146 C.ar    1  UNL1        0.0384
     20 C          66.3570   93.7194   10.5622 C.3     1  UNL1        0.2525
     21 O          65.8133   93.8244   11.9562 O.3     1  UNL1       -0.4714
     22 N          60.3322   89.2101    9.3376 N.am    1  UNL1       -0.2692
     23 C          59.9994   88.3149    8.1810 C.2     1  UNL1        0.2277
     24 C          59.0028   88.7587    7.1516 C.3     1  UNL1        0.0950
     25 O          60.6631   86.9758    8.0538 O.2     1  UNL1       -0.2747
     26 H          59.8966   90.0890    9.4211 H       1  UNL1        0.1563
@<TRIPOS>BOND
     1    20    21    1
     2    21    14    1
     3    14    15   ar
     4    15    16   ar
     5    16    17   ar
     6    17    18   ar
     7    18     1    1
     8     1     2   ar
     9     2     3   ar
    10     3    22    1
    11    22    23   am
    12    23    24    1
    13    23    25    2
    14     3     4   ar
    15     4     5   ar
    16     5     7    1
    17     7     8   ar
    18     8     9   ar
    19     9    10    1
    20     9    11   ar
    21    11    12   ar
    22    12    13    1
    23     5     6   ar
    24    18    19   ar
    25    19    14   ar
    26     6     1   ar
    27    12     7   ar
    28    22    26    1
@<TRIPOS>MOLECULE
*****
 26 28 0 0 0
SMALL
GASTEIGER

@<TRIPOS>ATOM
      1 C          62.1276   87.5168   11.1321 C.ar    1  UNL1        0.0873
      2 C          62.7514   88.7377   11.7407 C.ar    1  UNL1        0.0537
      3 C          63.5898   88.6138   12.9784 C.ar    1  UNL1        0.1388
      4 N          63.8043   87.2691   13.6075 N.ar    1  UNL1       -0.1948
      5 C          63.1805   86.0482   12.9988 C.ar    1  UNL1        0.2539
      6 N          62.3422   86.1721   11.7612 N.ar    1  UNL1       -0.2099
      7 N          63.3950   84.7035   13.6279 N.ar    1  UNL1       -0.2008
      8 N          63.3454   83.3814   12.9210 N.ar    1  UNL1       -0.1673
      9 C          63.6166   82.3056   13.9305 C.ar    1  UNL1        0.0806
     10 C          63.6625   80.8314   13.6572 C.3     1  UNL1        0.0540
     11 C          63.8337   82.9627   15.2613 C.ar    1  UNL1        0.0313
     12 C          63.6968   84.4447   15.0742 C.ar    1  UNL1        0.0651
     13 C          63.8371   85.4853   16.1455 C.3     1  UNL1        0.0523
     14 C          60.2026   86.5616    7.7957 C.ar    1  UNL1        0.1388
     15 C          59.6127   87.8883    7.4191 C.ar    1  UNL1        0.0369
     16 C          59.8611   89.0912    8.2801 C.ar    1  UNL1        0.0032
     17 C          60.6994   88.9674    9.5178 C.ar    1  UNL1        0.0017
     18 C          61.2893   87.6407    9.8944 C.ar    1  UNL1        0.0209
     19 C          61.0409   86.4378    9.0334 C.ar    1  UNL1        0.0384
     20 C          61.1083   84.5339    6.4475 C.3     1  UNL1        0.2525
     21 O          59.9541   85.3587    6.9347 O.3     1  UNL1       -0.4714
     22 N          64.2136   89.8346   13.5870 N.am    1  UNL1       -0.2692
     23 C          63.7584   90.3182   14.9320 C.2     1  UNL1        0.2277
     24 C          64.3821   91.5391   15.5406 C.3     1  UNL1        0.0950
     25 O          62.6794   89.5810   15.6683 O.2     1  UNL1       -0.2747
     26 H          64.9218   90.3185   13.1037 H       1  UNL1        0.1563
@<TRIPOS>BOND
     1    20    21    1
     2    21    14    1
     3    14    15   ar
     4    15    16   ar
     5    16    17   ar
     6    17    18   ar
     7    18     1    1
     8     1     2   ar
     9     2     3   ar
    10     3    22    1
    11    22    23   am
    12    23    24    1
    13    23    25    2
    14     3     4   ar
    15     4     5   ar
    16     5     7    1
    17     7     8   ar
    18     8     9   ar
    19     9    10    1
    20     9    11   ar
    21    11    12   ar
    22    12    13    1
    23     5     6   ar
    24    18    19   ar
    25    19    14   ar
    26     6     1   ar
    27    12     7   ar
    28    22    26    1
@<TRIPOS>MOLECULE
*****
 26 28 0 0 0
SMALL
GASTEIGER

@<TRIPOS>ATOM
      1 C          63.9693   88.9542   13.9481 C.ar    1  UNL1        0.0873
      2 C          64.3594   87.5685   14.3694 C.ar    1  UNL1        0.0537
      3 C          63.8651   86.3822   13.5957 C.ar    1  UNL1        0.1388
      4 N          62.9807   86.5818   12.4006 N.ar    1  UNL1       -0.1948
      5 C          62.5907   87.9677   11.9793 C.ar    1  UNL1        0.2539
      6 N          63.0850   89.1538   12.7531 N.ar    1  UNL1       -0.2099
      7 N          61.7063   88.1673   10.7843 N.ar    1  UNL1       -0.2008
      8 N          60.7699   87.1511   10.2009 N.ar    1  UNL1       -0.1673
      9 C          60.0879   87.7739    9.0189 C.ar    1  UNL1        0.0806
     10 C          59.0698   87.1118    8.1386 C.3     1  UNL1        0.0540
     11 C          60.6029   89.1750    8.8718 C.ar    1  UNL1        0.0313
     12 C          61.6032   89.4181    9.9629 C.ar    1  UNL1        0.0651
     13 C          62.3662   90.6890   10.1923 C.3     1  UNL1        0.0523
     14 C          66.2202   92.0212   15.0782 C.ar    1  UNL1        0.1388
     15 C          65.4523   92.5128   16.2692 C.ar    1  UNL1        0.0369
     16 C          64.1900   91.8182   16.6865 C.ar    1  UNL1        0.0032
     17 C          63.6957   90.6320   15.9129 C.ar    1  UNL1        0.0017
     18 C          64.4636   90.1404   14.7218 C.ar    1  UNL1        0.0209
     19 C          65.7259   90.8351   14.3045 C.ar    1  UNL1        0.0384
     20 C          68.2314   93.5655   15.6443 C.3     1  UNL1        0.2525
     21 O          67.4825   92.7158   14.6608 O.3     1  UNL1       -0.4714
     22 N          64.2551   84.9965   14.0169 N.am    1  UNL1       -0.2692
     23 C          63.2748   84.1327   14.7538 C.2     1  UNL1        0.2277
     24 C          63.6649   82.7470   15.1751 C.3     1  UNL1        0.0950
     25 O          61.9045   84.6547   15.0693 O.2     1  UNL1       -0.2747
     26 H          65.1546   84.6539   13.8099 H       1  UNL1        0.1563
@<TRIPOS>BOND
     1    20    21    1
     2    21    14    1
     3    14    15   ar
     4    15    16   ar
     5    16    17   ar
     6    17    18   ar
     7    18     1    1
     8     1     2   ar
     9     2     3   ar
    10     3    22    1
    11    22    23   am
    12    23    24    1
    13    23    25    2
    14     3     4   ar
    15     4     5   ar
    16     5     7    1
    17     7     8   ar
    18     8     9   ar
    19     9    10    1
    20     9    11   ar
    21    11    12   ar
    22    12    13    1
    23     5     6   ar
    24    18    19   ar
    25    19    14   ar
    26     6     1   ar
    27    12     7   ar
    28    22    26    1
@<TRIPOS>MOLECULE
*****
 26 28 0 0 0
SMALL
GASTEIGER

@<TRIPOS>ATOM
      1 C          62.6755   86.1659   12.3631 C.ar    1  UNL1        0.0873
      2 C          61.5386   86.2235   11.3863 C.ar    1  UNL1        0.0537
      3 C          61.1485   87.5323   10.7659 C.ar    1  UNL1        0.1388
      4 N          61.8953   88.7834   11.1223 N.ar    1  UNL1       -0.1948
      5 C          63.0322   88.7257   12.0991 C.ar    1  UNL1        0.2539
      6 N          63.4223   87.4170   12.7195 N.ar    1  UNL1       -0.2099
      7 N          63.7790   89.9769   12.4555 N.ar    1  UNL1       -0.2008
      8 N          64.5244   90.2251   13.7333 N.ar    1  UNL1       -0.1673
      9 C          65.1176   91.6010   13.6642 C.ar    1  UNL1        0.0806
     10 C          65.9444   92.2592   14.7288 C.3     1  UNL1        0.0540
     11 C          64.7389   92.2033   12.3437 C.ar    1  UNL1        0.0313
     12 C          63.9116   91.1995   11.5967 C.ar    1  UNL1        0.0651
     13 C          63.3206   91.3856   10.2306 C.3     1  UNL1        0.0523
     14 C          63.0829   82.2595   12.9330 C.ar    1  UNL1        0.1388
     15 C          63.8460   82.2395   14.2242 C.ar    1  UNL1        0.0369
     16 C          64.2189   83.5282   14.8950 C.ar    1  UNL1        0.0032
     17 C          63.8288   84.8370   14.2747 C.ar    1  UNL1        0.0017
     18 C          63.0657   84.8570   12.9835 C.ar    1  UNL1        0.0209
     19 C          62.6927   83.5683   12.3127 C.ar    1  UNL1        0.0384
     20 C          62.3326   79.7770   13.0883 C.3     1  UNL1        0.2525
     21 O          62.7099   80.9708   12.2622 O.3     1  UNL1       -0.4714
     22 N          60.0116   87.5900    9.7892 N.am    1  UNL1       -0.2692
     23 C          60.0959   86.8368    8.4948 C.2     1  UNL1        0.2277
     24 C          58.9590   86.8944    7.5180 C.3     1  UNL1        0.0950
     25 O          61.3172   86.0259    8.1771 O.2     1  UNL1       -0.2747
     26 H          59.2100   88.1222    9.9977 H       1  UNL1        0.1563
@<TRIPOS>BOND
     1    20    21    1
     2    21    14    1
     3    14    15   ar
     4    15    16   ar
     5    16    17   ar
     6    17    18   ar
     7    18     1    1
     8     1     2   ar
     9     2     3   ar
    10     3    22    1
    11    22    23   am
    12    23    24    1
    13    23    25    2
    14     3     4   ar
    15     4     5   ar
    16     5     7    1
    17     7     8   ar
    18     8     9   ar
    19     9    10    1
    20     9    11   ar
    21    11    12   ar
    22    12    13    1
    23     5     6   ar
    24    18    19   ar
    25    19    14   ar
    26     6     1   ar
    27    12     7   ar
    28    22    26    1
@<TRIPOS>MOLECULE
*****
 26 28 0 0 0
SMALL
GASTEIGER

@<TRIPOS>ATOM
      1 C          61.8655   87.3731   10.8313 C.ar    1  UNL1        0.0873
      2 C          62.5010   88.6169   11.3781 C.ar    1  UNL1        0.0537
      3 C          63.3630   88.5423   12.6035 C.ar    1  UNL1        0.1388
      4 N          63.5894   87.2238   13.2820 N.ar    1  UNL1       -0.1948
      5 C          62.9538   85.9800   12.7352 C.ar    1  UNL1        0.2539
      6 N          62.0919   86.0546   11.5099 N.ar    1  UNL1       -0.2099
      7 N          63.1802   84.6615   13.4138 N.ar    1  UNL1       -0.2008
      8 N          62.9589   83.3079   12.8065 N.ar    1  UNL1       -0.1673
      9 C          63.3095   82.2750   13.8362 C.ar    1  UNL1        0.0806
     10 C          63.2352   80.7879   13.6541 C.3     1  UNL1        0.0540
     11 C          63.7476   82.9902   15.0798 C.ar    1  UNL1        0.0313
     12 C          63.6676   84.4652   14.8187 C.ar    1  UNL1        0.0651
     13 C          64.0143   85.5528   15.7918 C.3     1  UNL1        0.0523
     14 C          59.7632   88.8569    7.8100 C.ar    1  UNL1        0.1388
     15 C          59.2796   87.5970    7.1553 C.ar    1  UNL1        0.0369
     16 C          59.6580   86.2624    7.7260 C.ar    1  UNL1        0.0032
     17 C          60.5199   86.1877    8.9513 C.ar    1  UNL1        0.0017
     18 C          61.0035   87.4477    9.6059 C.ar    1  UNL1        0.0209
     19 C          60.6251   88.7823    9.0353 C.ar    1  UNL1        0.0384
     20 C          59.0211   90.3113    5.7890 C.3     1  UNL1        0.2525
     21 O          59.3848   90.1915    7.2393 O.3     1  UNL1       -0.4714
     22 N          63.9985   89.7861   13.1503 N.am    1  UNL1       -0.2692
     23 C          63.6153   90.2883   14.5107 C.2     1  UNL1        0.2277
     24 C          64.2508   91.5321   15.0575 C.3     1  UNL1        0.0950
     25 O          62.5965   89.5468   15.3244 O.2     1  UNL1       -0.2747
     26 H          64.6672   90.2728   12.6162 H       1  UNL1        0.1563
@<TRIPOS>BOND
     1    20    21    1
     2    21    14    1
     3    14    15   ar
     4    15    16   ar
     5    16    17   ar
     6    17    18   ar
     7    18     1    1
     8     1     2   ar
     9     2     3   ar
    10     3    22    1
    11    22    23   am
    12    23    24    1
    13    23    25    2
    14     3     4   ar
    15     4     5   ar
    16     5     7    1
    17     7     8   ar
    18     8     9   ar
    19     9    10    1
    20     9    11   ar
    21    11    12   ar
    22    12    13    1
    23     5     6   ar
    24    18    19   ar
    25    19    14   ar
    26     6     1   ar
    27    12     7   ar
    28    22    26    1
@<TRIPOS>MOLECULE
*****
 26 28 0 0 0
SMALL
GASTEIGER

@<TRIPOS>ATOM
      1 C          64.3610   90.8939   12.4115 C.ar    1  UNL1        0.0873
      2 C          64.5063   90.1593   13.7112 C.ar    1  UNL1        0.0537
      3 C          63.7621   88.8761   13.9347 C.ar    1  UNL1        0.1388
      4 N          62.8727   88.3278   12.8585 N.ar    1  UNL1       -0.1948
      5 C          62.7274   89.0625   11.5588 C.ar    1  UNL1        0.2539
      6 N          63.4715   90.3456   11.3353 N.ar    1  UNL1       -0.2099
      7 N          61.8380   88.5141   10.4826 N.ar    1  UNL1       -0.2008
      8 N          62.0811   87.2644    9.6895 N.ar    1  UNL1       -0.1673
      9 C          60.9426   87.0971    8.7273 C.ar    1  UNL1        0.0806
     10 C          60.7796   85.9796    7.7401 C.3     1  UNL1        0.0540
     11 C          59.9958   88.2435    8.9256 C.ar    1  UNL1        0.0313
     12 C          60.5492   89.1193   10.0105 C.ar    1  UNL1        0.0651
     13 C          59.9236   90.3790   10.5316 C.3     1  UNL1        0.0523
     14 C          66.0143   93.9991   10.5745 C.ar    1  UNL1        0.1388
     15 C          66.5934   94.7432   11.7410 C.ar    1  UNL1        0.0369
     16 C          66.4284   94.2042   13.1311 C.ar    1  UNL1        0.0032
     17 C          65.6843   92.9212   13.3546 C.ar    1  UNL1        0.0017
     18 C          65.1051   92.1771   12.1881 C.ar    1  UNL1        0.0209
     19 C          65.2701   92.7160   10.7980 C.ar    1  UNL1        0.0384
     20 C          67.5304   94.9816    8.7074 C.3     1  UNL1        0.2525
     21 O          66.1793   94.5380    9.1844 O.3     1  UNL1       -0.4714
     22 N          63.9074   88.1414   15.2343 N.am    1  UNL1       -0.2692
     23 C          62.9318   88.3859   16.3472 C.2     1  UNL1        0.2277
     24 C          63.0771   87.6513   17.6468 C.3     1  UNL1        0.0950
     25 O          61.8110   89.3651   16.1605 O.2     1  UNL1       -0.2747
     26 H          64.6430   87.4988   15.3569 H       1  UNL1        0.1563
@<TRIPOS>BOND
     1    20    21    1
     2    21    14    1
     3    14    15   ar
     4    15    16   ar
     5    16    17   ar
     6    17    18   ar
     7    18     1    1
     8     1     2   ar
     9     2     3   ar
    10     3    22    1
    11    22    23   am
    12    23    24    1
    13    23    25    2
    14     3     4   ar
    15     4     5   ar
    16     5     7    1
    17     7     8   ar
    18     8     9   ar
    19     9    10    1
    20     9    11   ar
    21    11    12   ar
    22    12    13    1
    23     5     6   ar
    24    18    19   ar
    25    19    14   ar
    26     6     1   ar
    27    12     7   ar
    28    22    26    1
@<TRIPOS>MOLECULE
*****
 26 28 0 0 0
SMALL
GASTEIGER

@<TRIPOS>ATOM
      1 C          64.5250   91.6263   11.3465 C.ar    1  UNL1        0.0873
      2 C          64.3442   91.5080   12.8309 C.ar    1  UNL1        0.0537
      3 C          63.2754   90.6146   13.3874 C.ar    1  UNL1        0.1388
      4 N          62.3875   89.8396   12.4595 N.ar    1  UNL1       -0.1948
      5 C          62.5684   89.9579   10.9751 C.ar    1  UNL1        0.2539
      6 N          63.6371   90.8512   10.4187 N.ar    1  UNL1       -0.2099
      7 N          61.6804   89.1829   10.0473 N.ar    1  UNL1       -0.2008
      8 N          60.8189   89.7606    8.9638 N.ar    1  UNL1       -0.1673
      9 C          60.1041   88.6288    8.2869 C.ar    1  UNL1        0.0806
     10 C          59.1391   88.7526    7.1453 C.3     1  UNL1        0.0540
     11 C          60.5240   87.3516    8.9520 C.ar    1  UNL1        0.0313
     12 C          61.4982   87.6940   10.0400 C.ar    1  UNL1        0.0651
     13 C          62.1718   86.7188   10.9593 C.3     1  UNL1        0.0523
     14 C          66.3987   94.8793   10.0593 C.ar    1  UNL1        0.1388
     15 C          67.7312   94.3064    9.6770 C.ar    1  UNL1        0.0369
     16 C          67.9949   92.8401    9.8511 C.ar    1  UNL1        0.0032
     17 C          66.9263   91.9467   10.4076 C.ar    1  UNL1        0.0017
     18 C          65.5938   92.5197   10.7900 C.ar    1  UNL1        0.0209
     19 C          65.3301   93.9860   10.6158 C.ar    1  UNL1        0.0384
     20 C          65.5559   96.8560    8.5990 C.3     1  UNL1        0.2525
     21 O          66.1350   96.3457    9.8852 O.3     1  UNL1       -0.4714
     22 N          63.0946   90.4963   14.8717 N.am    1  UNL1       -0.2692
     23 C          63.4386   89.2138   15.5693 C.2     1  UNL1        0.2277
     24 C          63.2578   89.0955   17.0537 C.3     1  UNL1        0.0950
     25 O          63.9635   88.0495   14.7826 O.2     1  UNL1       -0.2747
     26 H          62.7501   91.2605   15.3881 H       1  UNL1        0.1563
@<TRIPOS>BOND
     1    20    21    1
     2    21    14    1
     3    14    15   ar
     4    15    16   ar
     5    16    17   ar
     6    17    18   ar
     7    18     1    1
     8     1     2   ar
     9     2     3   ar
    10     3    22    1
    11    22    23   am
    12    23    24    1
    13    23    25    2
    14     3     4   ar
    15     4     5   ar
    16     5     7    1
    17     7     8   ar
    18     8     9   ar
    19     9    10    1
    20     9    11   ar
    21    11    12   ar
    22    12    13    1
    23     5     6   ar
    24    18    19   ar
    25    19    14   ar
    26     6     1   ar
    27    12     7   ar
    28    22    26    1
