@<TRIPOS>MOLECULE
*****
 34 36 0 0 0
SMALL
GASTEIGER

@<TRIPOS>ATOM
      1 C          62.5752   89.3643   10.9538 C.ar    1  UNL1        0.0070
      2 C          62.8785   88.9139   12.3520 C.ar    1  UNL1       -0.0017
      3 C          63.8296   89.7012   13.2038 C.ar    1  UNL1       -0.0001
      4 C          64.4774   90.9388   12.6573 C.ar    1  UNL1        0.0032
      5 C          65.4285   91.7261   13.5092 C.ar    1  UNL1        0.0400
      6 C          66.0763   92.9638   12.9627 C.ar    1  UNL1        0.1726
      7 C          65.7729   93.4141   11.5644 C.ar    1  UNL1        0.1726
      8 C          64.8219   92.6269   10.7126 C.ar    1  UNL1        0.0400
      9 C          64.1741   91.3892   11.2591 C.ar    1  UNL1        0.0030
     10 C          63.2230   90.6019   10.4073 C.ar    1  UNL1       -0.0016
     11 C          61.6241   88.5770   10.1019 C.3     1  UNL1        0.1426
     12 O          62.7768   88.0580    9.2945 O.3     1  UNL1       -0.3770
     13 H          63.5072   87.8228    9.8878 H       1  UNL1        0.2112
     14 C          60.4714   89.0960   10.9093 C.ar    1  UNL1        0.1019
     15 C          59.9596   90.5060   10.9103 C.ar    1  UNL1        0.1404
     16 N          58.8000   90.5776   11.8592 N.ar    1  UNL1       -0.1276
     17 N          58.5951   89.2117   12.4446 N.ar    1  UNL1       -0.0674
     18 N          59.6281   88.2961   11.8576 N.ar    1  UNL1       -0.2579
     19 H          59.7340   87.3383   12.0593 H       1  UNL1        0.1904
     20 C          60.6440   86.2930    9.3450 C.3     1  UNL1        0.0031
     21 C          60.6730   87.7897    9.2501 C.3     1  UNL1        0.0340
     22 C          59.7508   88.4992    8.3034 C.3     1  UNL1        0.0031
     23 O          67.0274   93.7511   13.8145 O.3     1  UNL1       -0.4635
     24 C          67.0777   93.5171   15.2953 C.3     1  UNL1        0.3082
     25 C          68.3194   92.9583   15.9245 C.3     1  UNL1        0.4380
     26 F          69.5611   92.3995   16.5538 F       1  UNL1       -0.1663
     27 F          68.8502   94.3487   16.1118 F       1  UNL1       -0.1663
     28 F          67.7886   91.5680   15.7373 F       1  UNL1       -0.1663
     29 O          66.4207   94.6518   11.0179 O.3     1  UNL1       -0.4635
     30 C          67.3518   94.5559    9.8459 C.3     1  UNL1        0.3082
     31 C          67.3999   95.6619    8.8337 C.3     1  UNL1        0.4380
     32 F          67.4480   96.7679    7.8216 F       1  UNL1       -0.1663
     33 F          67.3810   96.6750    9.9398 F       1  UNL1       -0.1663
     34 F          67.4188   94.6489    7.7277 F       1  UNL1       -0.1663
@<TRIPOS>BOND
     1    20    21    1
     2    21    22    1
     3    21    11    1
     4    11    12    1
     5    11     1    1
     6     1     2   ar
     7     2     3   ar
     8     3     4   ar
     9     4     5   ar
    10     5     6   ar
    11     6    23    1
    12    23    24    1
    13    24    25    1
    14    25    26    1
    15    25    27    1
    16    25    28    1
    17     6     7   ar
    18     7    29    1
    19    29    30    1
    20    30    31    1
    21    31    32    1
    22    31    33    1
    23    31    34    1
    24     7     8   ar
    25     8     9   ar
    26     9    10   ar
    27    11    14    1
    28    14    15   ar
    29    15    16   ar
    30    16    17   ar
    31    17    18   ar
    32    10     1   ar
    33    18    14   ar
    34     9     4   ar
    35    12    13    1
    36    18    19    1
@<TRIPOS>MOLECULE
*****
 34 36 0 0 0
SMALL
GASTEIGER

@<TRIPOS>ATOM
      1 C          63.3487   84.2933   14.1690 C.ar    1  UNL1        0.0070
      2 C          64.1268   84.7669   15.3607 C.ar    1  UNL1       -0.0017
      3 C          64.5064   86.2130   15.4821 C.ar    1  UNL1       -0.0001
      4 C          64.1079   87.1854   14.4118 C.ar    1  UNL1        0.0032
      5 C          64.4876   88.6315   14.5332 C.ar    1  UNL1        0.0400
      6 C          64.0891   89.6039   13.4628 C.ar    1  UNL1        0.1726
      7 C          63.3110   89.1302   12.2711 C.ar    1  UNL1        0.1726
      8 C          62.9314   87.6842   12.1497 C.ar    1  UNL1        0.0400
      9 C          63.3299   86.7117   13.2200 C.ar    1  UNL1        0.0030
     10 C          62.9503   85.2657   13.0987 C.ar    1  UNL1       -0.0016
     11 C          62.9691   82.8472   14.0476 C.3     1  UNL1        0.1426
     12 O          62.4537   82.8641   15.4562 O.3     1  UNL1       -0.3770
     13 H          61.9575   83.6835   15.6090 H       1  UNL1        0.2112
     14 C          63.4844   82.8302   12.6390 C.ar    1  UNL1        0.1019
     15 C          62.6586   82.6476   11.4002 C.ar    1  UNL1        0.1404
     16 N          63.5800   82.6974   10.2174 N.ar    1  UNL1       -0.1276
     17 N          64.9752   82.9107   10.7254 N.ar    1  UNL1       -0.0674
     18 N          64.9161   82.9928   12.2220 N.ar    1  UNL1       -0.2579
     19 H          65.6825   83.1294   12.8247 H       1  UNL1        0.1904
     20 C          63.6514   80.3614   13.7229 C.3     1  UNL1        0.0031
     21 C          62.5895   81.4011   13.9261 C.3     1  UNL1        0.0340
     22 C          61.1478   80.9947   14.0079 C.3     1  UNL1        0.0031
     23 O          64.4688   91.0500   13.5842 O.3     1  UNL1       -0.4635
     24 C          65.6128   91.4536   14.4664 C.3     1  UNL1        0.3082
     25 C          66.9918   91.5882   13.8918 C.3     1  UNL1        0.4380
     26 F          68.3708   91.7228   13.3173 F       1  UNL1       -0.1663
     27 F          67.5795   91.1423   15.1979 F       1  UNL1       -0.1663
     28 F          66.4041   92.0341   12.5858 F       1  UNL1       -0.1663
     29 O          62.9126   90.1026   11.2007 O.3     1  UNL1       -0.4635
     30 C          61.4839   90.5439   11.0824 C.3     1  UNL1        0.3082
     31 C          60.5775   89.8904   10.0816 C.3     1  UNL1        0.4380
     32 F          59.6712   89.2370    9.0808 F       1  UNL1       -0.1663
     33 F          61.7628   89.2375    9.4344 F       1  UNL1       -0.1663
     34 F          59.3923   90.5433   10.7288 F       1  UNL1       -0.1663
@<TRIPOS>BOND
     1    20    21    1
     2    21    22    1
     3    21    11    1
     4    11    12    1
     5    11     1    1
     6     1     2   ar
     7     2     3   ar
     8     3     4   ar
     9     4     5   ar
    10     5     6   ar
    11     6    23    1
    12    23    24    1
    13    24    25    1
    14    25    26    1
    15    25    27    1
    16    25    28    1
    17     6     7   ar
    18     7    29    1
    19    29    30    1
    20    30    31    1
    21    31    32    1
    22    31    33    1
    23    31    34    1
    24     7     8   ar
    25     8     9   ar
    26     9    10   ar
    27    11    14    1
    28    14    15   ar
    29    15    16   ar
    30    16    17   ar
    31    17    18   ar
    32    10     1   ar
    33    18    14   ar
    34     9     4   ar
    35    12    13    1
    36    18    19    1
@<TRIPOS>MOLECULE
*****
 34 36 0 0 0
SMALL
GASTEIGER

@<TRIPOS>ATOM
      1 C          61.7666   89.5632   10.5298 C.ar    1  UNL1        0.0070
      2 C          61.6519   89.1768   11.9746 C.ar    1  UNL1       -0.0017
      3 C          62.5692   89.7909   12.9902 C.ar    1  UNL1       -0.0001
      4 C          63.6011   90.7913   12.5610 C.ar    1  UNL1        0.0032
      5 C          64.5184   91.4054   13.5767 C.ar    1  UNL1        0.0400
      6 C          65.5504   92.4059   13.1475 C.ar    1  UNL1        0.1726
      7 C          65.6650   92.7922   11.7026 C.ar    1  UNL1        0.1726
      8 C          64.7477   92.1782   10.6870 C.ar    1  UNL1        0.0400
      9 C          63.7158   91.1777   11.1162 C.ar    1  UNL1        0.0030
     10 C          62.7985   90.5637   10.1006 C.ar    1  UNL1       -0.0016
     11 C          60.8493   88.9492    9.5141 C.3     1  UNL1        0.1426
     12 O          60.2862   90.3042    9.2034 O.3     1  UNL1       -0.3770
     13 H          61.0071   90.9518    9.1601 H       1  UNL1        0.2112
     14 C          61.4124   87.5941    9.8249 C.ar    1  UNL1        0.1019
     15 C          61.0532   86.7393   11.0040 C.ar    1  UNL1        0.1404
     16 N          61.8524   85.4727   10.9190 N.ar    1  UNL1       -0.1276
     17 N          62.7056   85.5448    9.6873 N.ar    1  UNL1       -0.0674
     18 N          62.4336   86.8558    9.0111 N.ar    1  UNL1       -0.2579
     19 H          62.8520   87.1756    8.1793 H       1  UNL1        0.1904
     20 C          59.2768   87.0156    8.7804 C.3     1  UNL1        0.0031
     21 C          59.9321   88.3351    8.4985 C.3     1  UNL1        0.0340
     22 C          59.6701   89.0405    7.2009 C.3     1  UNL1        0.0031
     23 O          66.4676   93.0199   14.1631 O.3     1  UNL1       -0.4635
     24 C          67.9191   92.6422   14.1883 C.3     1  UNL1        0.3082
     25 C          68.6163   92.4301   15.4994 C.3     1  UNL1        0.4380
     26 F          69.3134   92.2180   16.8105 F       1  UNL1       -0.1663
     27 F          69.4048   93.6877   15.2835 F       1  UNL1       -0.1663
     28 F          67.8278   91.1725   15.7152 F       1  UNL1       -0.1663
     29 O          66.6969   93.7927   11.2734 O.3     1  UNL1       -0.4635
     30 C          66.2845   95.0126   10.5042 C.3     1  UNL1        0.3082
     31 C          67.0767   95.4477    9.3071 C.3     1  UNL1        0.4380
     32 F          67.8689   95.8829    8.1100 F       1  UNL1       -0.1663
     33 F          67.0907   96.8544    9.8277 F       1  UNL1       -0.1663
     34 F          67.0628   94.0411    8.7865 F       1  UNL1       -0.1663
@<TRIPOS>BOND
     1    20    21    1
     2    21    22    1
     3    21    11    1
     4    11    12    1
     5    11     1    1
     6     1     2   ar
     7     2     3   ar
     8     3     4   ar
     9     4     5   ar
    10     5     6   ar
    11     6    23    1
    12    23    24    1
    13    24    25    1
    14    25    26    1
    15    25    27    1
    16    25    28    1
    17     6     7   ar
    18     7    29    1
    19    29    30    1
    20    30    31    1
    21    31    32    1
    22    31    33    1
    23    31    34    1
    24     7     8   ar
    25     8     9   ar
    26     9    10   ar
    27    11    14    1
    28    14    15   ar
    29    15    16   ar
    30    16    17   ar
    31    17    18   ar
    32    10     1   ar
    33    18    14   ar
    34     9     4   ar
    35    12    13    1
    36    18    19    1
@<TRIPOS>MOLECULE
*****
 34 36 0 0 0
SMALL
GASTEIGER

@<TRIPOS>ATOM
      1 C          65.8373   93.9125   11.5558 C.ar    1  UNL1        0.0070
      2 C          66.4882   93.8860   12.9070 C.ar    1  UNL1       -0.0017
      3 C          66.1970   92.7629   13.8577 C.ar    1  UNL1       -0.0001
      4 C          65.2551   91.6664   13.4573 C.ar    1  UNL1        0.0032
      5 C          64.9640   90.5433   14.4081 C.ar    1  UNL1        0.0400
      6 C          64.0221   89.4468   14.0076 C.ar    1  UNL1        0.1726
      7 C          63.3712   89.4733   12.6564 C.ar    1  UNL1        0.1726
      8 C          63.6623   90.5964   11.7057 C.ar    1  UNL1        0.0400
      9 C          64.6043   91.6929   12.1061 C.ar    1  UNL1        0.0030
     10 C          64.8954   92.8160   11.1554 C.ar    1  UNL1       -0.0016
     11 C          66.1284   95.0357   10.6050 C.3     1  UNL1        0.1426
     12 O          65.1468   95.9059   11.3324 O.3     1  UNL1       -0.3770
     13 H          65.2535   95.7842   12.2888 H       1  UNL1        0.2112
     14 C          67.1100   94.1654    9.8777 C.ar    1  UNL1        0.1019
     15 C          67.3092   94.1122    8.3919 C.ar    1  UNL1        0.1404
     16 N          68.3871   93.1094    8.1043 N.ar    1  UNL1       -0.1276
     17 N          68.8541   92.5429    9.4124 N.ar    1  UNL1       -0.0674
     18 N          68.0648   93.1955   10.5083 N.ar    1  UNL1       -0.2579
     19 H          68.1572   93.0183   11.4724 H       1  UNL1        0.1904
     20 C          65.3803   96.5899    8.6622 C.3     1  UNL1        0.0031
     21 C          66.4195   96.1587    9.6542 C.3     1  UNL1        0.0340
     22 C          67.7498   96.8506    9.6955 C.3     1  UNL1        0.0031
     23 O          63.7310   88.3237   14.9583 O.3     1  UNL1       -0.4635
     24 C          64.5417   87.0629   14.9007 C.3     1  UNL1        0.3082
     25 C          63.8636   85.7295   15.0096 C.3     1  UNL1        0.4380
     26 F          63.1854   84.3960   15.1186 F       1  UNL1       -0.1663
     27 F          63.8549   85.8560   16.5042 F       1  UNL1       -0.1663
     28 F          63.8722   85.6029   13.5150 F       1  UNL1       -0.1663
     29 O          62.4293   88.3768   12.2560 O.3     1  UNL1       -0.4635
     30 C          62.1937   88.0834   10.8040 C.3     1  UNL1        0.3082
     31 C          62.1040   86.6629   10.3307 C.3     1  UNL1        0.4380
     32 F          62.0144   85.2423    9.8575 F       1  UNL1       -0.1663
     33 F          61.6218   86.2414   11.6871 F       1  UNL1       -0.1663
     34 F          62.5863   87.0843    8.9743 F       1  UNL1       -0.1663
@<TRIPOS>BOND
     1    20    21    1
     2    21    22    1
     3    21    11    1
     4    11    12    1
     5    11     1    1
     6     1     2   ar
     7     2     3   ar
     8     3     4   ar
     9     4     5   ar
    10     5     6   ar
    11     6    23    1
    12    23    24    1
    13    24    25    1
    14    25    26    1
    15    25    27    1
    16    25    28    1
    17     6     7   ar
    18     7    29    1
    19    29    30    1
    20    30    31    1
    21    31    32    1
    22    31    33    1
    23    31    34    1
    24     7     8   ar
    25     8     9   ar
    26     9    10   ar
    27    11    14    1
    28    14    15   ar
    29    15    16   ar
    30    16    17   ar
    31    17    18   ar
    32    10     1   ar
    33    18    14   ar
    34     9     4   ar
    35    12    13    1
    36    18    19    1
@<TRIPOS>MOLECULE
*****
 34 36 0 0 0
SMALL
GASTEIGER

@<TRIPOS>ATOM
      1 C          64.9486   92.2895   11.6948 C.ar    1  UNL1        0.0070
      2 C          64.9864   91.7068   13.0764 C.ar    1  UNL1       -0.0017
      3 C          64.2696   90.4220   13.3684 C.ar    1  UNL1       -0.0001
      4 C          63.5149   89.7199   12.2787 C.ar    1  UNL1        0.0032
      5 C          62.7980   88.4349   12.5707 C.ar    1  UNL1        0.0400
      6 C          62.0433   87.7328   11.4810 C.ar    1  UNL1        0.1726
      7 C          62.0055   88.3156   10.0993 C.ar    1  UNL1        0.1726
      8 C          62.7223   89.6004    9.8073 C.ar    1  UNL1        0.0400
      9 C          63.4770   90.3026   10.8970 C.ar    1  UNL1        0.0030
     10 C          64.1939   91.5874   10.6051 C.ar    1  UNL1       -0.0016
     11 C          65.6654   93.5744   11.4028 C.3     1  UNL1        0.1426
     12 O          64.6657   93.8884   10.3296 O.3     1  UNL1       -0.3770
     13 H          63.7748   93.6666   10.6427 H       1  UNL1        0.2112
     14 C          66.6652   93.2605   12.4760 C.ar    1  UNL1        0.1019
     15 C          66.6839   93.8385   13.8600 C.ar    1  UNL1        0.1404
     16 N          67.8522   93.2486   14.5931 N.ar    1  UNL1       -0.1276
     17 N          68.5555   92.3060   13.6620 N.ar    1  UNL1       -0.0674
     18 N          67.8220   92.3133   12.3536 N.ar    1  UNL1       -0.2579
     19 H          68.0583   91.7886   11.5548 H       1  UNL1        0.1904
     20 C          67.4158   94.9115   10.0250 C.3     1  UNL1        0.0031
     21 C          66.3823   94.8593   11.1108 C.3     1  UNL1        0.0340
     22 C          66.0656   96.0920   11.9047 C.3     1  UNL1        0.0031
     23 O          61.3265   86.4480   11.7729 O.3     1  UNL1       -0.4635
     24 C          61.8661   85.1515   11.2456 C.3     1  UNL1        0.3082
     25 C          63.0903   84.5424   11.8624 C.3     1  UNL1        0.4380
     26 F          64.3145   83.9334   12.4791 F       1  UNL1       -0.1663
     27 F          62.5880   84.9138   13.2261 F       1  UNL1       -0.1663
     28 F          63.5926   84.1710   10.4987 F       1  UNL1       -0.1663
     29 O          61.2508   87.6134    9.0096 O.3     1  UNL1       -0.4635
     30 C          59.8018   87.9256    8.7795 C.3     1  UNL1        0.3082
     31 C          59.3626   88.5334    7.4804 C.3     1  UNL1        0.4380
     32 F          58.9233   89.1411    6.1813 F       1  UNL1       -0.1663
     33 F          59.8980   89.8633    7.9215 F       1  UNL1       -0.1663
     34 F          58.8271   87.2034    7.0393 F       1  UNL1       -0.1663
@<TRIPOS>BOND
     1    20    21    1
     2    21    22    1
     3    21    11    1
     4    11    12    1
     5    11     1    1
     6     1     2   ar
     7     2     3   ar
     8     3     4   ar
     9     4     5   ar
    10     5     6   ar
    11     6    23    1
    12    23    24    1
    13    24    25    1
    14    25    26    1
    15    25    27    1
    16    25    28    1
    17     6     7   ar
    18     7    29    1
    19    29    30    1
    20    30    31    1
    21    31    32    1
    22    31    33    1
    23    31    34    1
    24     7     8   ar
    25     8     9   ar
    26     9    10   ar
    27    11    14    1
    28    14    15   ar
    29    15    16   ar
    30    16    17   ar
    31    17    18   ar
    32    10     1   ar
    33    18    14   ar
    34     9     4   ar
    35    12    13    1
    36    18    19    1
@<TRIPOS>MOLECULE
*****
 34 36 0 0 0
SMALL
GASTEIGER

@<TRIPOS>ATOM
      1 C          63.2874   84.1201   14.2783 C.ar    1  UNL1        0.0070
      2 C          64.0402   84.4944   15.5206 C.ar    1  UNL1       -0.0017
      3 C          64.4755   85.9138   15.7346 C.ar    1  UNL1       -0.0001
      4 C          64.1580   86.9588   14.7065 C.ar    1  UNL1        0.0032
      5 C          64.5934   88.3783   14.9206 C.ar    1  UNL1        0.0400
      6 C          64.2759   89.4233   13.8924 C.ar    1  UNL1        0.1726
      7 C          63.5231   89.0489   12.6501 C.ar    1  UNL1        0.1726
      8 C          63.0878   87.6295   12.4360 C.ar    1  UNL1        0.0400
      9 C          63.4053   86.5845   13.4642 C.ar    1  UNL1        0.0030
     10 C          62.9700   85.1651   13.2502 C.ar    1  UNL1       -0.0016
     11 C          62.8521   82.7007   14.0642 C.3     1  UNL1        0.1426
     12 O          62.2792   82.6673   15.4501 O.3     1  UNL1       -0.3770
     13 H          61.8123   83.4989   15.6270 H       1  UNL1        0.2112
     14 C          63.4250   82.7341   12.6784 C.ar    1  UNL1        0.1019
     15 C          62.6439   82.6678   11.3995 C.ar    1  UNL1        0.1404
     16 N          63.6158   82.7324   10.2587 N.ar    1  UNL1       -0.1276
     17 N          64.9977   82.8385   10.8326 N.ar    1  UNL1       -0.0674
     18 N          64.8798   82.8396   12.3280 N.ar    1  UNL1       -0.2579
     19 H          65.6261   82.8990   12.9672 H       1  UNL1        0.1904
     20 C          63.4318   80.2270   13.5211 C.3     1  UNL1        0.0031
     21 C          62.4168   81.2813   13.8501 C.3     1  UNL1        0.0340
     22 C          60.9664   80.9162   13.9649 C.3     1  UNL1        0.0031
     23 O          64.7112   90.8427   14.1065 O.3     1  UNL1       -0.4635
     24 C          66.1492   91.1495   14.4034 C.3     1  UNL1        0.3082
     25 C          66.4987   92.1581   15.4572 C.3     1  UNL1        0.4380
     26 F          66.8483   93.1666   16.5110 F       1  UNL1       -0.1663
     27 F          65.1069   92.0645   16.0084 F       1  UNL1       -0.1663
     28 F          67.8906   92.2516   14.9060 F       1  UNL1       -0.1663
     29 O          63.2057   90.0939   11.6219 O.3     1  UNL1       -0.4635
     30 C          63.6147   91.5189   11.8498 C.3     1  UNL1        0.3082
     31 C          64.5483   92.1940   10.8893 C.3     1  UNL1        0.4380
     32 F          65.4819   92.8691    9.9288 F       1  UNL1       -0.1663
     33 F          63.9397   91.4229    9.7557 F       1  UNL1       -0.1663
     34 F          65.1570   92.9651   12.0229 F       1  UNL1       -0.1663
@<TRIPOS>BOND
     1    20    21    1
     2    21    22    1
     3    21    11    1
     4    11    12    1
     5    11     1    1
     6     1     2   ar
     7     2     3   ar
     8     3     4   ar
     9     4     5   ar
    10     5     6   ar
    11     6    23    1
    12    23    24    1
    13    24    25    1
    14    25    26    1
    15    25    27    1
    16    25    28    1
    17     6     7   ar
    18     7    29    1
    19    29    30    1
    20    30    31    1
    21    31    32    1
    22    31    33    1
    23    31    34    1
    24     7     8   ar
    25     8     9   ar
    26     9    10   ar
    27    11    14    1
    28    14    15   ar
    29    15    16   ar
    30    16    17   ar
    31    17    18   ar
    32    10     1   ar
    33    18    14   ar
    34     9     4   ar
    35    12    13    1
    36    18    19    1
@<TRIPOS>MOLECULE
*****
 34 36 0 0 0
SMALL
GASTEIGER

@<TRIPOS>ATOM
      1 C          61.6225   86.7563    9.6660 C.ar    1  UNL1        0.0070
      2 C          62.2576   85.7997    8.7008 C.ar    1  UNL1       -0.0017
      3 C          62.9960   84.5983    9.2119 C.ar    1  UNL1       -0.0001
      4 C          63.0994   84.3534   10.6881 C.ar    1  UNL1        0.0032
      5 C          63.8380   83.1519   11.1992 C.ar    1  UNL1        0.0400
      6 C          63.9414   82.9071   12.6754 C.ar    1  UNL1        0.1726
      7 C          63.3063   83.8637   13.6406 C.ar    1  UNL1        0.1726
      8 C          62.5678   85.0651   13.1296 C.ar    1  UNL1        0.0400
      9 C          62.4644   85.3100   11.6533 C.ar    1  UNL1        0.0030
     10 C          61.7259   86.5114   11.1423 C.ar    1  UNL1       -0.0016
     11 C          60.8840   87.9577    9.1549 C.3     1  UNL1        0.1426
     12 O          60.3071   87.1308    8.0444 O.3     1  UNL1       -0.3770
     13 H          60.0355   86.2670    8.3920 H       1  UNL1        0.2112
     14 C          61.4609   88.7847   10.2655 C.ar    1  UNL1        0.1019
     15 C          62.6919   89.6377   10.1817 C.ar    1  UNL1        0.1404
     16 N          62.8999   90.2840   11.5194 N.ar    1  UNL1       -0.1276
     17 N          61.7974   89.8304   12.4298 N.ar    1  UNL1       -0.0674
     18 N          60.9081   88.9038   11.6549 N.ar    1  UNL1       -0.2579
     19 H          60.1029   88.4529   11.9979 H       1  UNL1        0.1904
     20 C          59.8223   90.2919    9.5727 C.3     1  UNL1        0.0031
     21 C          60.1455   89.1592    8.6440 C.3     1  UNL1        0.0340
     22 C          59.7303   89.2280    7.2042 C.3     1  UNL1        0.0031
     23 O          64.6798   81.7057   13.1865 O.3     1  UNL1       -0.4635
     24 C          63.9189   80.5322   13.7289 C.3     1  UNL1        0.3082
     25 C          62.4374   80.4353   13.5149 C.3     1  UNL1        0.4380
     26 F          60.9560   80.3383   13.3010 F       1  UNL1       -0.1663
     27 F          62.2025   81.0415   14.8667 F       1  UNL1       -0.1663
     28 F          62.6723   79.8291   12.1632 F       1  UNL1       -0.1663
     29 O          63.4097   83.6189   15.1169 O.3     1  UNL1       -0.4635
     30 C          62.5121   84.3581   16.0645 C.3     1  UNL1        0.3082
     31 C          62.9398   85.6827   16.6235 C.3     1  UNL1        0.4380
     32 F          63.3676   87.0073   17.1825 F       1  UNL1       -0.1663
     33 F          64.3534   85.4016   16.2079 F       1  UNL1       -0.1663
     34 F          61.5262   85.9638   17.0391 F       1  UNL1       -0.1663
@<TRIPOS>BOND
     1    20    21    1
     2    21    22    1
     3    21    11    1
     4    11    12    1
     5    11     1    1
     6     1     2   ar
     7     2     3   ar
     8     3     4   ar
     9     4     5   ar
    10     5     6   ar
    11     6    23    1
    12    23    24    1
    13    24    25    1
    14    25    26    1
    15    25    27    1
    16    25    28    1
    17     6     7   ar
    18     7    29    1
    19    29    30    1
    20    30    31    1
    21    31    32    1
    22    31    33    1
    23    31    34    1
    24     7     8   ar
    25     8     9   ar
    26     9    10   ar
    27    11    14    1
    28    14    15   ar
    29    15    16   ar
    30    16    17   ar
    31    17    18   ar
    32    10     1   ar
    33    18    14   ar
    34     9     4   ar
    35    12    13    1
    36    18    19    1
@<TRIPOS>MOLECULE
*****
 34 36 0 0 0
SMALL
GASTEIGER

@<TRIPOS>ATOM
      1 C          63.6834   85.6589   13.4363 C.ar    1  UNL1        0.0070
      2 C          63.8634   85.6488   14.9254 C.ar    1  UNL1       -0.0017
      3 C          64.0500   86.9392   15.6671 C.ar    1  UNL1       -0.0001
      4 C          64.0565   88.2397   14.9196 C.ar    1  UNL1        0.0032
      5 C          64.2431   89.5301   15.6614 C.ar    1  UNL1        0.0400
      6 C          64.2497   90.8306   14.9139 C.ar    1  UNL1        0.1726
      7 C          64.0697   90.8406   13.4247 C.ar    1  UNL1        0.1726
      8 C          63.8831   89.5503   12.6831 C.ar    1  UNL1        0.0400
      9 C          63.8765   88.2498   13.4305 C.ar    1  UNL1        0.0030
     10 C          63.6900   86.9594   12.6889 C.ar    1  UNL1       -0.0016
     11 C          63.4969   84.3685   12.6946 C.3     1  UNL1        0.1426
     12 O          64.3615   83.6661   13.6991 O.3     1  UNL1       -0.3770
     13 H          64.1352   83.9726   14.5911 H       1  UNL1        0.2112
     14 C          62.6322   85.0709   11.6901 C.ar    1  UNL1        0.1019
     15 C          62.8331   85.0753   10.2036 C.ar    1  UNL1        0.1404
     16 N          61.7399   85.8994    9.5906 N.ar    1  UNL1       -0.1276
     17 N          60.8634   86.4044   10.6982 N.ar    1  UNL1       -0.0674
     18 N          61.4149   85.8924   11.9958 N.ar    1  UNL1       -0.2579
     19 H          61.0432   86.0652   12.8909 H       1  UNL1        0.1904
     20 C          62.1757   82.1646   12.3108 C.3     1  UNL1        0.0031
     21 C          63.3103   83.0782   11.9529 C.3     1  UNL1        0.0340
     22 C          64.2583   82.7014   10.8531 C.3     1  UNL1        0.0031
     23 O          64.4362   92.1209   15.6556 O.3     1  UNL1       -0.4635
     24 C          65.7138   92.3820   16.3970 C.3     1  UNL1        0.3082
     25 C          66.9167   92.8937   15.6614 C.3     1  UNL1        0.4380
     26 F          68.1196   93.4054   14.9258 F       1  UNL1       -0.1663
     27 F          67.8127   92.1901   16.6372 F       1  UNL1       -0.1663
     28 F          66.0208   93.5972   14.6856 F       1  UNL1       -0.1663
     29 O          64.0762   92.1411   12.6773 O.3     1  UNL1       -0.4635
     30 C          64.9199   92.2947   11.4467 C.3     1  UNL1        0.3082
     31 C          65.9709   93.3632   11.3864 C.3     1  UNL1        0.4380
     32 F          67.0220   94.4317   11.3261 F       1  UNL1       -0.1663
     33 F          66.9118   92.4809   12.1521 F       1  UNL1       -0.1663
     34 F          65.0300   94.2454   10.6207 F       1  UNL1       -0.1663
@<TRIPOS>BOND
     1    20    21    1
     2    21    22    1
     3    21    11    1
     4    11    12    1
     5    11     1    1
     6     1     2   ar
     7     2     3   ar
     8     3     4   ar
     9     4     5   ar
    10     5     6   ar
    11     6    23    1
    12    23    24    1
    13    24    25    1
    14    25    26    1
    15    25    27    1
    16    25    28    1
    17     6     7   ar
    18     7    29    1
    19    29    30    1
    20    30    31    1
    21    31    32    1
    22    31    33    1
    23    31    34    1
    24     7     8   ar
    25     8     9   ar
    26     9    10   ar
    27    11    14    1
    28    14    15   ar
    29    15    16   ar
    30    16    17   ar
    31    17    18   ar
    32    10     1   ar
    33    18    14   ar
    34     9     4   ar
    35    12    13    1
    36    18    19    1
