@<TRIPOS>MOLECULE
*****
 32 36 0 0 0
SMALL
GASTEIGER

@<TRIPOS>ATOM
      1 C          64.9245   91.5438   13.2279 C.ar    1  UNL1        0.1667
      2 N          64.4265   90.1330   13.1197 N.ar    1  UNL1       -0.2221
      3 C          63.5806   90.0335   11.8849 C.ar    1  UNL1        0.1309
      4 C          62.8297   88.8886   11.2723 C.ar    1  UNL1        0.0810
      5 C          62.0540   89.0930   10.0048 C.ar    1  UNL1        0.0895
      6 CL         61.3031   87.9480    9.3922 Cl      1  UNL1       -0.0793
      7 C          62.0292   90.4422    9.3500 C.ar    1  UNL1        0.0863
      8 N          62.7801   91.5871    9.9626 N.ar    1  UNL1       -0.3354
      9 C          63.5558   91.3828   11.2300 C.ar    1  UNL1        0.1613
     10 N          64.3863   92.3162   12.0600 N.ar    1  UNL1       -0.2080
     11 H          62.7637   92.4727    9.5328 H       1  UNL1        0.1675
     12 C          64.1987   91.6652   16.4071 C.3     1  UNL1        0.0541
     13 C          65.4722   92.1427   15.7747 C.ar    1  UNL1        0.0834
     14 N          66.6357   92.7598   16.4926 N.ar    1  UNL1       -0.1735
     15 N          67.6885   93.0854   15.4749 N.ar    1  UNL1       -0.2476
     16 C          69.0203   93.7161   15.7549 C.3     1  UNL1        0.1538
     17 C          67.1756   92.6695   14.1280 C.ar    1  UNL1        0.0994
     18 C          65.8058   92.0869   14.3133 C.ar    1  UNL1        0.0698
     19 N          62.8545   87.5393   11.9272 N.pl3   1  UNL1       -0.3027
     20 C          63.6489   87.3291   13.1820 C.3     1  UNL1        0.1082
     21 C          63.6736   85.9797   13.8368 C.3     1  UNL1        0.0941
     22 N          62.9040   84.8407   13.2367 N.3     1  UNL1       -0.2660
     23 C          62.1096   85.0508   11.9818 C.3     1  UNL1        0.0941
     24 C          62.0849   86.4002   11.3270 C.3     1  UNL1        0.1082
     25 C          62.9287   83.4913   13.8914 C.3     1  UNL1        0.0992
     26 C          62.8802   82.2492   13.0517 C.ar    1  UNL1       -0.0061
     27 C          62.5084   80.9366   13.6752 C.ar    1  UNL1       -0.0021
     28 C          62.4599   79.6945   12.8356 C.ar    1  UNL1        0.0111
     29 C          62.7831   79.7652   11.3726 C.ar    1  UNL1        0.0577
     30 CL         62.7346   78.5231   10.5329 Cl      1  UNL1       -0.0822
     31 C          63.1549   81.0778   10.7491 C.ar    1  UNL1        0.0111
     32 C          63.2034   82.3199   11.5887 C.ar    1  UNL1       -0.0021
@<TRIPOS>BOND
     1    12    13    1
     2    13    14   ar
     3    14    15   ar
     4    15    16    1
     5    15    17   ar
     6    17    18   ar
     7    18     1    1
     8     1     2   ar
     9     2     3   ar
    10     3     4   ar
    11     4    19    1
    12    19    20    1
    13    20    21    1
    14    21    22    1
    15    22    25    1
    16    25    26    1
    17    26    27   ar
    18    27    28   ar
    19    28    29   ar
    20    29    30    1
    21    29    31   ar
    22    31    32   ar
    23    22    23    1
    24    23    24    1
    25     4     5   ar
    26     5     6    1
    27     5     7   ar
    28     7     8   ar
    29     8     9   ar
    30     9    10   ar
    31    18    13   ar
    32    10     1   ar
    33     9     3    1
    34    24    19    1
    35    32    26   ar
    36     8    11    1
@<TRIPOS>MOLECULE
*****
 32 36 0 0 0
SMALL
GASTEIGER

@<TRIPOS>ATOM
      1 C          63.1187   90.5799   12.0168 C.ar    1  UNL1        0.1667
      2 N          63.1071   89.1565   11.5435 N.ar    1  UNL1       -0.2221
      3 C          61.9932   89.0075   10.5500 C.ar    1  UNL1        0.1309
      4 C          61.5078   87.8316    9.7553 C.ar    1  UNL1        0.0810
      5 C          60.3454   87.9870    8.8199 C.ar    1  UNL1        0.0895
      6 CL         59.8600   86.8110    8.0251 Cl      1  UNL1       -0.0793
      7 C          59.6686   89.3181    8.6792 C.ar    1  UNL1        0.0863
      8 N          60.1540   90.4940    9.4740 N.ar    1  UNL1       -0.3354
      9 C          61.3163   90.3387   10.4094 C.ar    1  UNL1        0.1613
     10 N          62.0119   91.3105   11.3159 N.ar    1  UNL1       -0.2080
     11 H          59.7098   91.3677    9.3816 H       1  UNL1        0.1675
     12 C          63.3244   89.7791   15.1737 C.3     1  UNL1        0.0541
     13 C          64.1645   90.8010   14.4668 C.ar    1  UNL1        0.0834
     14 N          65.2467   91.6343   15.0868 N.ar    1  UNL1       -0.1735
     15 N          65.8210   92.5175   14.0190 N.ar    1  UNL1       -0.2476
     16 C          66.9281   93.5132   14.1994 C.3     1  UNL1        0.1538
     17 C          65.0937   92.2299   12.7389 C.ar    1  UNL1        0.0994
     18 C          64.0700   91.1691   13.0157 C.ar    1  UNL1        0.0698
     19 N          62.1846   86.5004    9.8959 N.pl3   1  UNL1       -0.3027
     20 C          62.8333   85.8593    8.7050 C.3     1  UNL1        0.1082
     21 C          63.5101   84.5281    8.8457 C.3     1  UNL1        0.0941
     22 N          63.5382   83.8380   10.1773 N.3     1  UNL1       -0.2660
     23 C          62.8895   84.4791   11.3681 C.3     1  UNL1        0.0941
     24 C          62.2127   85.8103   11.2274 C.3     1  UNL1        0.1082
     25 C          64.2150   82.5068   10.3180 C.3     1  UNL1        0.0992
     26 C          63.6816   81.4928   11.2863 C.ar    1  UNL1       -0.0061
     27 C          62.9881   80.2634   10.7788 C.ar    1  UNL1       -0.0021
     28 C          62.4548   79.2495   11.7470 C.ar    1  UNL1        0.0111
     29 C          62.6149   79.4650   13.2227 C.ar    1  UNL1        0.0577
     30 CL         62.0816   78.4512   14.1910 Cl      1  UNL1       -0.0822
     31 C          63.3084   80.6945   13.7302 C.ar    1  UNL1        0.0111
     32 C          63.8417   81.7084   12.7621 C.ar    1  UNL1       -0.0021
@<TRIPOS>BOND
     1    12    13    1
     2    13    14   ar
     3    14    15   ar
     4    15    16    1
     5    15    17   ar
     6    17    18   ar
     7    18     1    1
     8     1     2   ar
     9     2     3   ar
    10     3     4   ar
    11     4    19    1
    12    19    20    1
    13    20    21    1
    14    21    22    1
    15    22    25    1
    16    25    26    1
    17    26    27   ar
    18    27    28   ar
    19    28    29   ar
    20    29    30    1
    21    29    31   ar
    22    31    32   ar
    23    22    23    1
    24    23    24    1
    25     4     5   ar
    26     5     6    1
    27     5     7   ar
    28     7     8   ar
    29     8     9   ar
    30     9    10   ar
    31    18    13   ar
    32    10     1   ar
    33     9     3    1
    34    24    19    1
    35    32    26   ar
    36     8    11    1
@<TRIPOS>MOLECULE
*****
 32 36 0 0 0
SMALL
GASTEIGER

@<TRIPOS>ATOM
      1 C          64.2472   91.2028   12.4077 C.ar    1  UNL1        0.1667
      2 N          63.9465   89.7333   12.4005 N.ar    1  UNL1       -0.2221
      3 C          62.7310   89.5131   11.5495 C.ar    1  UNL1        0.1309
      4 C          61.9762   88.2707   11.1800 C.ar    1  UNL1        0.0810
      5 C          60.7709   88.3617   10.2917 C.ar    1  UNL1        0.0895
      6 CL         60.0161   87.1192    9.9221 Cl      1  UNL1       -0.0793
      7 C          60.3205   89.6951    9.7730 C.ar    1  UNL1        0.0863
      8 N          61.0753   90.9375   10.1425 N.ar    1  UNL1       -0.3354
      9 C          62.2806   90.8466   11.0308 C.ar    1  UNL1        0.1613
     10 N          63.2177   91.8909   11.5612 N.ar    1  UNL1       -0.2080
     11 H          60.7797   91.8127    9.8020 H       1  UNL1        0.1675
     12 C          65.9207   93.8079   11.3770 C.3     1  UNL1        0.0541
     13 C          66.1481   93.0651   12.6601 C.ar    1  UNL1        0.0834
     14 N          67.1846   93.3893   13.6948 N.ar    1  UNL1       -0.1735
     15 N          67.0560   92.3922   14.8081 N.ar    1  UNL1       -0.2476
     16 C          67.8959   92.3440   16.0499 C.3     1  UNL1        0.1538
     17 C          65.9400   91.4518   14.4614 C.ar    1  UNL1        0.0994
     18 C          65.3789   91.8677   13.1339 C.ar    1  UNL1        0.0698
     19 N          62.4266   86.9372   11.6987 N.pl3   1  UNL1       -0.3027
     20 C          62.0747   85.6845   10.9526 C.3     1  UNL1        0.1082
     21 C          62.5251   84.3510   11.4714 C.3     1  UNL1        0.0941
     22 N          63.3275   84.2704   12.7362 N.3     1  UNL1       -0.2660
     23 C          63.6795   85.5232   13.4823 C.3     1  UNL1        0.0941
     24 C          63.2290   86.8566   12.9635 C.3     1  UNL1        0.1082
     25 C          63.7779   82.9370   13.2550 C.3     1  UNL1        0.0992
     26 C          63.4429   81.6858   12.4984 C.ar    1  UNL1       -0.0061
     27 C          63.6050   81.6446   11.0077 C.ar    1  UNL1       -0.0021
     28 C          63.2701   80.3935   10.2511 C.ar    1  UNL1        0.0111
     29 C          62.7731   79.1835   10.9852 C.ar    1  UNL1        0.0577
     30 CL         62.4381   77.9323   10.2287 Cl      1  UNL1       -0.0822
     31 C          62.6110   79.2247   12.4759 C.ar    1  UNL1        0.0111
     32 C          62.9459   80.4758   13.2325 C.ar    1  UNL1       -0.0021
@<TRIPOS>BOND
     1    12    13    1
     2    13    14   ar
     3    14    15   ar
     4    15    16    1
     5    15    17   ar
     6    17    18   ar
     7    18     1    1
     8     1     2   ar
     9     2     3   ar
    10     3     4   ar
    11     4    19    1
    12    19    20    1
    13    20    21    1
    14    21    22    1
    15    22    25    1
    16    25    26    1
    17    26    27   ar
    18    27    28   ar
    19    28    29   ar
    20    29    30    1
    21    29    31   ar
    22    31    32   ar
    23    22    23    1
    24    23    24    1
    25     4     5   ar
    26     5     6    1
    27     5     7   ar
    28     7     8   ar
    29     8     9   ar
    30     9    10   ar
    31    18    13   ar
    32    10     1   ar
    33     9     3    1
    34    24    19    1
    35    32    26   ar
    36     8    11    1
@<TRIPOS>MOLECULE
*****
 32 36 0 0 0
SMALL
GASTEIGER

@<TRIPOS>ATOM
      1 C          62.1658   93.3989    1.4148 C.ar    1  UNL1        0.1667
      2 N          61.4985   93.8498    0.1493 N.ar    1  UNL1       -0.2221
      3 C          62.5353   94.5072   -0.7126 C.ar    1  UNL1        0.1309
      4 C          62.4572   95.1407   -2.0700 C.ar    1  UNL1        0.0810
      5 C          63.6874   95.7296   -2.6946 C.ar    1  UNL1        0.0895
      6 CL         63.6094   96.3631   -4.0521 Cl      1  UNL1       -0.0793
      7 C          64.9954   95.6851   -1.9618 C.ar    1  UNL1        0.0863
      8 N          65.0734   95.0516   -0.6044 N.ar    1  UNL1       -0.3354
      9 C          63.8433   94.4627    0.0202 C.ar    1  UNL1        0.1613
     10 N          63.6150   93.7777    1.3350 N.ar    1  UNL1       -0.2080
     11 H          65.9319   95.0223   -0.1234 H       1  UNL1        0.1675
     12 C          63.4840   91.0343    3.2369 C.3     1  UNL1        0.0541
     13 C          62.1066   91.6062    3.3966 C.ar    1  UNL1        0.0834
     14 N          61.0933   91.1917    4.4220 N.ar    1  UNL1       -0.1735
     15 N          59.8610   92.0224    4.2182 N.ar    1  UNL1       -0.2476
     16 C          58.5988   91.9397    5.0242 C.3     1  UNL1        0.1538
     17 C          60.1128   92.9504    3.0668 C.ar    1  UNL1        0.0994
     18 C          61.5007   92.6931    2.5591 C.ar    1  UNL1        0.0698
     19 N          61.1492   95.1853   -2.8029 N.pl3   1  UNL1       -0.3027
     20 C          60.3863   96.4732   -2.8978 C.3     1  UNL1        0.1082
     21 C          59.0782   96.5177   -3.6307 C.3     1  UNL1        0.0941
     22 N          58.5332   95.2743   -4.2686 N.3     1  UNL1       -0.2660
     23 C          59.2962   93.9864   -4.1736 C.3     1  UNL1        0.0941
     24 C          60.6042   93.9419   -3.4407 C.3     1  UNL1        0.1082
     25 C          57.2252   95.3188   -5.0015 C.3     1  UNL1        0.0992
     26 C          55.9421   95.4630   -4.2378 C.ar    1  UNL1       -0.0061
     27 C          55.8341   94.9203   -2.8436 C.ar    1  UNL1       -0.0021
     28 C          54.5511   95.0645   -2.0800 C.ar    1  UNL1        0.0111
     29 C          53.3762   95.7513   -2.7106 C.ar    1  UNL1        0.0577
     30 CL         52.0932   95.8955   -1.9470 Cl      1  UNL1       -0.0822
     31 C          53.4842   96.2940   -4.1048 C.ar    1  UNL1        0.0111
     32 C          54.7672   96.1498   -4.8685 C.ar    1  UNL1       -0.0021
@<TRIPOS>BOND
     1    12    13    1
     2    13    14   ar
     3    14    15   ar
     4    15    16    1
     5    15    17   ar
     6    17    18   ar
     7    18     1    1
     8     1     2   ar
     9     2     3   ar
    10     3     4   ar
    11     4    19    1
    12    19    20    1
    13    20    21    1
    14    21    22    1
    15    22    25    1
    16    25    26    1
    17    26    27   ar
    18    27    28   ar
    19    28    29   ar
    20    29    30    1
    21    29    31   ar
    22    31    32   ar
    23    22    23    1
    24    23    24    1
    25     4     5   ar
    26     5     6    1
    27     5     7   ar
    28     7     8   ar
    29     8     9   ar
    30     9    10   ar
    31    18    13   ar
    32    10     1   ar
    33     9     3    1
    34    24    19    1
    35    32    26   ar
    36     8    11    1
@<TRIPOS>MOLECULE
*****
 32 36 0 0 0
SMALL
GASTEIGER

@<TRIPOS>ATOM
      1 C          61.1919   87.4163    9.9294 C.ar    1  UNL1        0.1667
      2 N          62.0866   88.3277   10.7162 N.ar    1  UNL1       -0.2221
      3 C          62.6211   87.5558   11.8860 C.ar    1  UNL1        0.1309
      4 C          63.5488   87.9378   13.0011 C.ar    1  UNL1        0.0810
      5 C          63.9121   86.9314   14.0524 C.ar    1  UNL1        0.0895
      6 CL         64.8399   87.3135   15.1676 Cl      1  UNL1       -0.0793
      7 C          63.3478   85.5432   13.9887 C.ar    1  UNL1        0.0863
      8 N          62.4201   85.1612   12.8736 N.ar    1  UNL1       -0.3354
      9 C          62.0567   86.1675   11.8223 C.ar    1  UNL1        0.1613
     10 N          61.1734   86.0813   10.6130 N.ar    1  UNL1       -0.2080
     11 H          62.0497   84.2500   12.8318 H       1  UNL1        0.1675
     12 C          60.3601   85.3632    7.5332 C.3     1  UNL1        0.0541
     13 C          60.0642   86.8330    7.5772 C.ar    1  UNL1        0.0834
     14 N          59.3339   87.6171    6.5275 N.ar    1  UNL1       -0.1735
     15 N          59.2649   89.0456    6.9802 N.ar    1  UNL1       -0.2476
     16 C          58.6213   90.1767    6.2344 C.3     1  UNL1        0.1538
     17 C          59.9525   89.1442    8.3097 C.ar    1  UNL1        0.0994
     18 C          60.4465   87.7768    8.6786 C.ar    1  UNL1        0.0698
     19 N          64.1132   89.3262   13.0649 N.pl3   1  UNL1       -0.3027
     20 C          65.0165   89.7173   14.1967 C.3     1  UNL1        0.1082
     21 C          65.5809   91.1056   14.2604 C.3     1  UNL1        0.0941
     22 N          65.2419   92.1027   13.1923 N.3     1  UNL1       -0.2660
     23 C          64.3387   91.7116   12.0605 C.3     1  UNL1        0.0941
     24 C          63.7743   90.3233   11.9968 C.3     1  UNL1        0.1082
     25 C          65.8063   93.4911   13.2561 C.3     1  UNL1        0.0992
     26 C          66.2634   94.1732   12.0007 C.ar    1  UNL1       -0.0061
     27 C          66.1346   95.6616   11.8664 C.ar    1  UNL1       -0.0021
     28 C          66.5917   96.3438   10.6111 C.ar    1  UNL1        0.0111
     29 C          67.1776   95.5375    9.4902 C.ar    1  UNL1        0.0577
     30 CL         67.6347   96.2196    8.2349 Cl      1  UNL1       -0.0822
     31 C          67.3065   94.0491    9.6245 C.ar    1  UNL1        0.0111
     32 C          66.8494   93.3669   10.8797 C.ar    1  UNL1       -0.0021
@<TRIPOS>BOND
     1    12    13    1
     2    13    14   ar
     3    14    15   ar
     4    15    16    1
     5    15    17   ar
     6    17    18   ar
     7    18     1    1
     8     1     2   ar
     9     2     3   ar
    10     3     4   ar
    11     4    19    1
    12    19    20    1
    13    20    21    1
    14    21    22    1
    15    22    25    1
    16    25    26    1
    17    26    27   ar
    18    27    28   ar
    19    28    29   ar
    20    29    30    1
    21    29    31   ar
    22    31    32   ar
    23    22    23    1
    24    23    24    1
    25     4     5   ar
    26     5     6    1
    27     5     7   ar
    28     7     8   ar
    29     8     9   ar
    30     9    10   ar
    31    18    13   ar
    32    10     1   ar
    33     9     3    1
    34    24    19    1
    35    32    26   ar
    36     8    11    1
@<TRIPOS>MOLECULE
*****
 32 36 0 0 0
SMALL
GASTEIGER

@<TRIPOS>ATOM
      1 C          62.1687   93.4016    1.4330 C.ar    1  UNL1        0.1667
      2 N          61.5060   93.8516    0.1648 N.ar    1  UNL1       -0.2221
      3 C          62.5440   94.5167   -0.6898 C.ar    1  UNL1        0.1309
      4 C          62.4700   95.1528   -2.0462 C.ar    1  UNL1        0.0810
      5 C          63.7004   95.7499   -2.6626 C.ar    1  UNL1        0.0895
      6 CL         63.6264   96.3860   -4.0191 Cl      1  UNL1       -0.0793
      7 C          65.0044   95.7110   -1.9226 C.ar    1  UNL1        0.0863
      8 N          65.0784   95.0749   -0.5661 N.ar    1  UNL1       -0.3354
      9 C          63.8482   94.4777    0.0503 C.ar    1  UNL1        0.1613
     10 N          63.6162   93.7885    1.3622 N.ar    1  UNL1       -0.2080
     11 H          65.9343   95.0493   -0.0804 H       1  UNL1        0.1675
     12 C          63.5058   91.0722    3.2866 C.3     1  UNL1        0.0541
     13 C          62.1158   91.6189    3.4240 C.ar    1  UNL1        0.0834
     14 N          61.0963   91.1908    4.4376 N.ar    1  UNL1       -0.1735
     15 N          59.8515   91.9969    4.2121 N.ar    1  UNL1       -0.2476
     16 C          58.5799   91.8947    5.0009 C.3     1  UNL1        0.1538
     17 C          60.1018   92.9233    3.0590 C.ar    1  UNL1        0.0994
     18 C          61.5011   92.6896    2.5720 C.ar    1  UNL1        0.0698
     19 N          61.1659   95.1917   -2.7863 N.pl3   1  UNL1       -0.3027
     20 C          60.0729   96.1130   -2.3319 C.3     1  UNL1        0.1082
     21 C          58.7688   96.1519   -3.0720 C.3     1  UNL1        0.0941
     22 N          58.5578   95.2696   -4.2666 N.3     1  UNL1       -0.2660
     23 C          59.6508   94.3483   -4.7210 C.3     1  UNL1        0.0941
     24 C          60.9548   94.3094   -3.9808 C.3     1  UNL1        0.1082
     25 C          57.2537   95.3085   -5.0067 C.3     1  UNL1        0.0992
     26 C          56.6433   94.0373   -5.5182 C.ar    1  UNL1       -0.0061
     27 C          56.4276   92.8812   -4.5871 C.ar    1  UNL1       -0.0021
     28 C          55.8173   91.6100   -5.0984 C.ar    1  UNL1        0.0111
     29 C          55.4227   91.4949   -6.5410 C.ar    1  UNL1        0.0577
     30 CL         54.8124   90.2237   -7.0525 Cl      1  UNL1       -0.0822
     31 C          55.6384   92.6510   -7.4721 C.ar    1  UNL1        0.0111
     32 C          56.2487   93.9222   -6.9608 C.ar    1  UNL1       -0.0021
@<TRIPOS>BOND
     1    12    13    1
     2    13    14   ar
     3    14    15   ar
     4    15    16    1
     5    15    17   ar
     6    17    18   ar
     7    18     1    1
     8     1     2   ar
     9     2     3   ar
    10     3     4   ar
    11     4    19    1
    12    19    20    1
    13    20    21    1
    14    21    22    1
    15    22    25    1
    16    25    26    1
    17    26    27   ar
    18    27    28   ar
    19    28    29   ar
    20    29    30    1
    21    29    31   ar
    22    31    32   ar
    23    22    23    1
    24    23    24    1
    25     4     5   ar
    26     5     6    1
    27     5     7   ar
    28     7     8   ar
    29     8     9   ar
    30     9    10   ar
    31    18    13   ar
    32    10     1   ar
    33     9     3    1
    34    24    19    1
    35    32    26   ar
    36     8    11    1
@<TRIPOS>MOLECULE
*****
 32 36 0 0 0
SMALL
GASTEIGER

@<TRIPOS>ATOM
      1 C          61.3329   89.4929    9.8425 C.ar    1  UNL1        0.1667
      2 N          61.9164   88.4774   10.7797 N.ar    1  UNL1       -0.2221
      3 C          62.7243   89.2085   11.8106 C.ar    1  UNL1        0.1309
      4 C          63.5258   88.7276   12.9838 C.ar    1  UNL1        0.0810
      5 C          64.2430   89.7141   13.8570 C.ar    1  UNL1        0.0895
      6 CL         65.0446   89.2332   15.0303 Cl      1  UNL1       -0.0793
      7 C          64.1589   91.1813   13.5570 C.ar    1  UNL1        0.0863
      8 N          63.3574   91.6622   12.3838 N.ar    1  UNL1       -0.3354
      9 C          62.6401   90.6757   11.5106 C.ar    1  UNL1        0.1613
     10 N          61.7802   90.8515   10.2942 N.ar    1  UNL1       -0.2080
     11 H          63.3022   92.6252   12.1869 H       1  UNL1        0.1675
     12 C          60.2705   86.5474    8.9234 C.3     1  UNL1        0.0541
     13 C          59.9678   87.8471    8.2386 C.ar    1  UNL1        0.0834
     14 N          59.1235   88.0211    7.0110 N.ar    1  UNL1       -0.1735
     15 N          59.0900   89.4826    6.6747 N.ar    1  UNL1       -0.2476
     16 C          58.3610   90.1054    5.5213 C.3     1  UNL1        0.1538
     17 C          59.9136   90.2118    7.6945 C.ar    1  UNL1        0.0994
     18 C          60.4561   89.2010    8.6610 C.ar    1  UNL1        0.0698
     19 N          63.6100   87.2603   13.2839 N.pl3   1  UNL1       -0.3027
     20 C          64.3354   86.7855   14.5080 C.3     1  UNL1        0.1082
     21 C          64.4196   85.3183   14.8079 C.3     1  UNL1        0.0941
     22 N          63.7784   84.3258   13.8839 N.3     1  UNL1       -0.2660
     23 C          63.0530   84.8005   12.6598 C.3     1  UNL1        0.0941
     24 C          62.9688   86.2678   12.3598 C.3     1  UNL1        0.1082
     25 C          63.8626   82.8585   14.1839 C.3     1  UNL1        0.0992
     26 C          63.5418   81.8550   13.1160 C.ar    1  UNL1       -0.0061
     27 C          63.8843   82.1471   11.6851 C.ar    1  UNL1       -0.0021
     28 C          63.5636   81.1437   10.6173 C.ar    1  UNL1        0.0111
     29 C          62.9004   79.8482   10.9803 C.ar    1  UNL1        0.0577
     30 CL         62.5796   78.8448    9.9125 Cl      1  UNL1       -0.0822
     31 C          62.5579   79.5562   12.4112 C.ar    1  UNL1        0.0111
     32 C          62.8786   80.5595   13.4791 C.ar    1  UNL1       -0.0021
@<TRIPOS>BOND
     1    12    13    1
     2    13    14   ar
     3    14    15   ar
     4    15    16    1
     5    15    17   ar
     6    17    18   ar
     7    18     1    1
     8     1     2   ar
     9     2     3   ar
    10     3     4   ar
    11     4    19    1
    12    19    20    1
    13    20    21    1
    14    21    22    1
    15    22    25    1
    16    25    26    1
    17    26    27   ar
    18    27    28   ar
    19    28    29   ar
    20    29    30    1
    21    29    31   ar
    22    31    32   ar
    23    22    23    1
    24    23    24    1
    25     4     5   ar
    26     5     6    1
    27     5     7   ar
    28     7     8   ar
    29     8     9   ar
    30     9    10   ar
    31    18    13   ar
    32    10     1   ar
    33     9     3    1
    34    24    19    1
    35    32    26   ar
    36     8    11    1
@<TRIPOS>MOLECULE
*****
 32 36 0 0 0
SMALL
GASTEIGER

@<TRIPOS>ATOM
      1 C          54.4071   95.7793   -4.8450 C.ar    1  UNL1        0.1667
      2 N          55.5881   95.6227   -3.9336 N.ar    1  UNL1       -0.2221
      3 C          56.7975   95.3639   -4.7824 C.ar    1  UNL1        0.1309
      4 C          58.2375   95.1308   -4.4333 C.ar    1  UNL1        0.0810
      5 C          59.2440   94.8943   -5.5202 C.ar    1  UNL1        0.0895
      6 CL         60.6841   94.6612   -5.1710 Cl      1  UNL1       -0.0793
      7 C          58.8103   94.8909   -6.9560 C.ar    1  UNL1        0.0863
      8 N          57.3703   95.1240   -7.3052 N.ar    1  UNL1       -0.3354
      9 C          56.3639   95.3605   -6.2184 C.ar    1  UNL1        0.1613
     10 N          54.8865   95.6173   -6.2571 N.ar    1  UNL1       -0.2080
     11 H          57.0857   95.1218   -8.2477 H       1  UNL1        0.1675
     12 C          53.3106   95.8525   -1.7723 C.3     1  UNL1        0.0541
     13 C          52.4907   96.0841   -3.0067 C.ar    1  UNL1        0.0834
     14 N          51.0227   96.3899   -3.0455 N.ar    1  UNL1       -0.1735
     15 N          50.6193   96.5453   -4.4819 N.ar    1  UNL1       -0.2476
     16 C          49.2397   96.8560   -4.9816 C.3     1  UNL1        0.1538
     17 C          51.8381   96.3355   -5.3309 C.ar    1  UNL1        0.0994
     18 C          52.9946   96.0504   -4.4191 C.ar    1  UNL1        0.0698
     19 N          58.6712   95.1342   -2.9973 N.pl3   1  UNL1       -0.3027
     20 C          58.4051   93.9392   -2.1307 C.3     1  UNL1        0.1082
     21 C          58.8389   93.9426   -0.6947 C.3     1  UNL1        0.0941
     22 N          59.5386   95.1411   -0.1255 N.3     1  UNL1       -0.2660
     23 C          59.8047   96.3361   -0.9922 C.3     1  UNL1        0.0941
     24 C          59.3710   96.3326   -2.4281 C.3     1  UNL1        0.1082
     25 C          59.9724   95.1446    1.3104 C.3     1  UNL1        0.0992
     26 C          60.8907   94.0730    1.8191 C.ar    1  UNL1       -0.0061
     27 C          62.2958   93.9818    1.3021 C.ar    1  UNL1       -0.0021
     28 C          63.2140   92.9103    1.8107 C.ar    1  UNL1        0.0111
     29 C          62.7271   91.9301    2.8364 C.ar    1  UNL1        0.0577
     30 CL         63.6454   90.8586    3.3451 Cl      1  UNL1       -0.0822
     31 C          61.3220   92.0214    3.3535 C.ar    1  UNL1        0.0111
     32 C          60.4038   93.0928    2.8449 C.ar    1  UNL1       -0.0021
@<TRIPOS>BOND
     1    12    13    1
     2    13    14   ar
     3    14    15   ar
     4    15    16    1
     5    15    17   ar
     6    17    18   ar
     7    18     1    1
     8     1     2   ar
     9     2     3   ar
    10     3     4   ar
    11     4    19    1
    12    19    20    1
    13    20    21    1
    14    21    22    1
    15    22    25    1
    16    25    26    1
    17    26    27   ar
    18    27    28   ar
    19    28    29   ar
    20    29    30    1
    21    29    31   ar
    22    31    32   ar
    23    22    23    1
    24    23    24    1
    25     4     5   ar
    26     5     6    1
    27     5     7   ar
    28     7     8   ar
    29     8     9   ar
    30     9    10   ar
    31    18    13   ar
    32    10     1   ar
    33     9     3    1
    34    24    19    1
    35    32    26   ar
    36     8    11    1
@<TRIPOS>MOLECULE
*****
 32 36 0 0 0
SMALL
GASTEIGER

@<TRIPOS>ATOM
      1 C          62.2452   85.4613   10.3939 C.ar    1  UNL1        0.1667
      2 N          62.7961   86.6469   11.1292 N.ar    1  UNL1       -0.2221
      3 C          63.0136   86.2460   12.5582 C.ar    1  UNL1        0.1309
      4 C          63.5371   87.0010   13.7439 C.ar    1  UNL1        0.0810
      5 C          63.6442   86.3224   15.0774 C.ar    1  UNL1        0.0895
      6 CL         64.1677   87.0775   16.2632 Cl      1  UNL1       -0.0793
      7 C          63.2278   84.8891   15.2252 C.ar    1  UNL1        0.0863
      8 N          62.7043   84.1341   14.0395 N.ar    1  UNL1       -0.3354
      9 C          62.5972   84.8125   12.7060 C.ar    1  UNL1        0.1613
     10 N          62.1223   84.3275   11.3684 N.ar    1  UNL1       -0.2080
     11 H          62.4310   83.1933   14.1365 H       1  UNL1        0.1675
     12 C          59.6902   86.9467    9.0101 C.3     1  UNL1        0.0541
     13 C          60.7067   86.0999    8.3034 C.ar    1  UNL1        0.0834
     14 N          60.7273   85.7871    6.8365 N.ar    1  UNL1       -0.1735
     15 N          61.9144   84.9110    6.5659 N.ar    1  UNL1       -0.2476
     16 C          62.3176   84.3604    5.2303 C.3     1  UNL1        0.1538
     17 C          62.6276   84.6823    7.8656 C.ar    1  UNL1        0.0994
     18 C          61.8811   85.4171    8.9394 C.ar    1  UNL1        0.0698
     19 N          63.9535   88.4345   13.5962 N.pl3   1  UNL1       -0.3027
     20 C          64.9291   89.0356   14.5641 C.3     1  UNL1        0.1082
     21 C          65.3455   90.4691   14.4163 C.3     1  UNL1        0.0941
     22 N          64.7863   91.3013   13.3006 N.3     1  UNL1       -0.2660
     23 C          63.8107   90.7002   12.3327 C.3     1  UNL1        0.0941
     24 C          63.3943   89.2667   12.4805 C.3     1  UNL1        0.1082
     25 C          65.2026   92.7348   13.1529 C.3     1  UNL1        0.0992
     26 C          65.9291   93.1814   11.9188 C.ar    1  UNL1       -0.0061
     27 C          66.8638   92.2411   11.2171 C.ar    1  UNL1       -0.0021
     28 C          67.5902   92.6876    9.9830 C.ar    1  UNL1        0.0111
     29 C          67.3820   94.0744    9.4507 C.ar    1  UNL1        0.0577
     30 CL         68.1084   94.5210    8.2167 Cl      1  UNL1       -0.0822
     31 C          66.4474   95.0147   10.1524 C.ar    1  UNL1        0.0111
     32 C          65.7209   94.5682   11.3864 C.ar    1  UNL1       -0.0021
@<TRIPOS>BOND
     1    12    13    1
     2    13    14   ar
     3    14    15   ar
     4    15    16    1
     5    15    17   ar
     6    17    18   ar
     7    18     1    1
     8     1     2   ar
     9     2     3   ar
    10     3     4   ar
    11     4    19    1
    12    19    20    1
    13    20    21    1
    14    21    22    1
    15    22    25    1
    16    25    26    1
    17    26    27   ar
    18    27    28   ar
    19    28    29   ar
    20    29    30    1
    21    29    31   ar
    22    31    32   ar
    23    22    23    1
    24    23    24    1
    25     4     5   ar
    26     5     6    1
    27     5     7   ar
    28     7     8   ar
    29     8     9   ar
    30     9    10   ar
    31    18    13   ar
    32    10     1   ar
    33     9     3    1
    34    24    19    1
    35    32    26   ar
    36     8    11    1
