@<TRIPOS>MOLECULE
*****
 26 29 0 0 0
SMALL
GASTEIGER

@<TRIPOS>ATOM
      1 N          65.7494   93.1009   10.1662 N.pl3   1  UNL1       -0.3441
      2 C          64.9316   92.2736   11.1133 C.ar    1  UNL1        0.1035
      3 C          63.8033   91.4335   10.5929 C.ar    1  UNL1        0.0297
      4 C          62.9854   90.6062   11.5400 C.ar    1  UNL1        0.0090
      5 C          63.2961   90.6191   13.0074 C.ar    1  UNL1        0.1366
      6 N          62.6689   89.9124   14.1723 N.ar    1  UNL1       -0.1258
      7 N          63.4097   90.3158   15.4127 N.ar    1  UNL1       -0.0406
      8 N          64.4947   91.2719   15.0143 N.ar    1  UNL1       -0.1095
      9 C          64.4245   91.4594   13.5277 C.ar    1  UNL1        0.1838
     10 N          65.2422   92.2866   12.5807 N.ar    1  UNL1       -0.3249
     11 H          65.5456   93.0925    9.2031 H       1  UNL1        0.1437
     12 H          66.4900   93.6524   10.5078 H       1  UNL1        0.1437
     13 H          65.9829   92.8380   12.9222 H       1  UNL1        0.1686
     14 C          61.8570   89.7660   11.0195 C.3     1  UNL1        0.0757
     15 C          62.0608   88.2986   10.7850 C.ar    1  UNL1        0.0849
     16 C          61.9049   87.5850    9.4749 C.ar    1  UNL1        0.0374
     17 C          62.2041   86.1325    9.6997 C.ar    1  UNL1        0.1016
     18 N          62.5449   85.9482   11.1488 N.ar    1  UNL1       -0.2285
     19 N          62.4563   87.2870   11.8196 N.ar    1  UNL1       -0.1691
     20 C          62.9101   84.6527   11.8109 C.ar    1  UNL1        0.0830
     21 C          63.4901   83.5329   10.9990 C.ar    1  UNL1        0.0215
     22 C          63.8554   82.2374   11.6611 C.ar    1  UNL1        0.0312
     23 C          63.6405   82.0619   13.1353 C.ar    1  UNL1        0.1402
     24 F          64.0056   80.7665   13.7975 F       1  UNL1       -0.2042
     25 C          63.0604   83.1818   13.9472 C.ar    1  UNL1        0.0312
     26 C          62.6952   84.4773   13.2850 C.ar    1  UNL1        0.0215
@<TRIPOS>BOND
     1     1     2    1
     2     2     3   ar
     3     3     4   ar
     4     4    14    1
     5    14    15    1
     6    15    16   ar
     7    16    17   ar
     8    17    18   ar
     9    18    20    1
    10    20    21   ar
    11    21    22   ar
    12    22    23   ar
    13    23    24    1
    14    23    25   ar
    15    25    26   ar
    16    18    19   ar
    17     4     5   ar
    18     5     6   ar
    19     6     7   ar
    20     7     8   ar
    21     8     9   ar
    22     9    10   ar
    23    10     2   ar
    24    19    15   ar
    25     9     5    1
    26    26    20   ar
    27     1    11    1
    28     1    12    1
    29    10    13    1
@<TRIPOS>MOLECULE
*****
 26 29 0 0 0
SMALL
GASTEIGER

@<TRIPOS>ATOM
      1 N          66.3975   93.4708    9.7076 N.pl3   1  UNL1       -0.3441
      2 C          66.0849   93.0492   11.1128 C.ar    1  UNL1        0.1035
      3 C          64.9327   92.1269   11.3804 C.ar    1  UNL1        0.0297
      4 C          64.6201   91.7053   12.7857 C.ar    1  UNL1        0.0090
      5 C          65.4598   92.2061   13.9232 C.ar    1  UNL1        0.1366
      6 N          65.3932   91.9645   15.4022 N.ar    1  UNL1       -0.1258
      7 N          66.5043   92.7376   16.0485 N.ar    1  UNL1       -0.0406
      8 N          67.2576   93.4569   14.9691 N.ar    1  UNL1       -0.1095
      9 C          66.6121   93.1284   13.6556 C.ar    1  UNL1        0.1838
     10 N          66.9246   93.5500   12.2504 N.ar    1  UNL1       -0.3249
     11 H          65.8464   93.1421    8.9609 H       1  UNL1        0.1437
     12 H          67.1538   94.0761    9.5320 H       1  UNL1        0.1437
     13 H          67.6809   94.1553   12.0747 H       1  UNL1        0.1686
     14 C          63.4678   90.7830   13.0532 C.3     1  UNL1        0.0757
     15 C          63.7233   89.3637   13.4658 C.ar    1  UNL1        0.0849
     16 C          64.4163   88.9213   14.7204 C.ar    1  UNL1        0.0374
     17 C          64.4519   87.4218   14.7261 C.ar    1  UNL1        0.1016
     18 N          63.7811   86.9373   13.4750 N.ar    1  UNL1       -0.2285
     19 N          63.3308   88.1375   12.6961 N.ar    1  UNL1       -0.1691
     20 C          63.5935   85.5043   13.0733 C.ar    1  UNL1        0.0830
     21 C          64.2274   84.4101   13.8798 C.ar    1  UNL1        0.0215
     22 C          64.0398   82.9771   13.4782 C.ar    1  UNL1        0.0312
     23 C          63.2181   82.6384   12.2698 C.ar    1  UNL1        0.1402
     24 F          63.0304   81.2055   11.8680 F       1  UNL1       -0.2042
     25 C          62.5841   83.7327   11.4632 C.ar    1  UNL1        0.0312
     26 C          62.7718   85.1656   11.8650 C.ar    1  UNL1        0.0215
@<TRIPOS>BOND
     1     1     2    1
     2     2     3   ar
     3     3     4   ar
     4     4    14    1
     5    14    15    1
     6    15    16   ar
     7    16    17   ar
     8    17    18   ar
     9    18    20    1
    10    20    21   ar
    11    21    22   ar
    12    22    23   ar
    13    23    24    1
    14    23    25   ar
    15    25    26   ar
    16    18    19   ar
    17     4     5   ar
    18     5     6   ar
    19     6     7   ar
    20     7     8   ar
    21     8     9   ar
    22     9    10   ar
    23    10     2   ar
    24    19    15   ar
    25     9     5    1
    26    26    20   ar
    27     1    11    1
    28     1    12    1
    29    10    13    1
@<TRIPOS>MOLECULE
*****
 26 29 0 0 0
SMALL
GASTEIGER

@<TRIPOS>ATOM
      1 N          62.3431   89.7121   10.0172 N.pl3   1  UNL1       -0.3441
      2 C          63.0946   90.0233   11.2776 C.ar    1  UNL1        0.1035
      3 C          63.1448   89.0170   12.3888 C.ar    1  UNL1        0.0297
      4 C          63.8963   89.3283   13.6492 C.ar    1  UNL1        0.0090
      5 C          64.5976   90.6458   13.7982 C.ar    1  UNL1        0.1366
      6 N          65.4108   91.2292   14.9155 N.ar    1  UNL1       -0.1258
      7 N          65.8632   92.5960   14.4948 N.ar    1  UNL1       -0.0406
      8 N          65.3296   92.8574   13.1175 N.ar    1  UNL1       -0.1095
      9 C          64.5474   91.6521   12.6870 C.ar    1  UNL1        0.1838
     10 N          63.7959   91.3408   11.4266 N.ar    1  UNL1       -0.3249
     11 H          61.8828   88.8473    9.9193 H       1  UNL1        0.1437
     12 H          62.3102   90.3726    9.2879 H       1  UNL1        0.1437
     13 H          63.7630   92.0013   10.6973 H       1  UNL1        0.1686
     14 C          63.9464   88.3219   14.7604 C.3     1  UNL1        0.0757
     15 C          64.2642   86.8872   14.4592 C.ar    1  UNL1        0.0849
     16 C          65.2884   86.0450   15.1604 C.ar    1  UNL1        0.0374
     17 C          65.2707   84.6802   14.5384 C.ar    1  UNL1        0.1016
     18 N          64.2357   84.6789   13.4528 N.ar    1  UNL1       -0.2285
     19 N          63.6136   86.0429   13.4038 N.ar    1  UNL1       -0.1691
     20 C          63.8843   83.5174   12.5709 C.ar    1  UNL1        0.0830
     21 C          64.3198   83.5068   11.1356 C.ar    1  UNL1        0.0215
     22 C          63.9684   82.3455   10.2537 C.ar    1  UNL1        0.0312
     23 C          63.1815   81.1946   10.8073 C.ar    1  UNL1        0.1402
     24 F          62.8302   80.0331    9.9255 F       1  UNL1       -0.2042
     25 C          62.7461   81.2052   12.2427 C.ar    1  UNL1        0.0312
     26 C          63.0975   82.3666   13.1245 C.ar    1  UNL1        0.0215
@<TRIPOS>BOND
     1     1     2    1
     2     2     3   ar
     3     3     4   ar
     4     4    14    1
     5    14    15    1
     6    15    16   ar
     7    16    17   ar
     8    17    18   ar
     9    18    20    1
    10    20    21   ar
    11    21    22   ar
    12    22    23   ar
    13    23    24    1
    14    23    25   ar
    15    25    26   ar
    16    18    19   ar
    17     4     5   ar
    18     5     6   ar
    19     6     7   ar
    20     7     8   ar
    21     8     9   ar
    22     9    10   ar
    23    10     2   ar
    24    19    15   ar
    25     9     5    1
    26    26    20   ar
    27     1    11    1
    28     1    12    1
    29    10    13    1
@<TRIPOS>MOLECULE
*****
 26 29 0 0 0
SMALL
GASTEIGER

@<TRIPOS>ATOM
      1 N          65.8027   93.5465    9.7450 N.pl3   1  UNL1       -0.3441
      2 C          65.6411   93.0526   11.1522 C.ar    1  UNL1        0.1035
      3 C          64.6269   91.9922   11.4630 C.ar    1  UNL1        0.0297
      4 C          64.4653   91.4982   12.8702 C.ar    1  UNL1        0.0090
      5 C          65.3181   92.0648   13.9664 C.ar    1  UNL1        0.1366
      6 N          65.3841   91.7770   15.4370 N.ar    1  UNL1       -0.1258
      7 N          66.4393   92.6596   16.0351 N.ar    1  UNL1       -0.0406
      8 N          67.0253   93.4929   14.9341 N.ar    1  UNL1       -0.1095
      9 C          66.3324   93.1253   13.6555 C.ar    1  UNL1        0.1838
     10 N          66.4939   93.6191   12.2484 N.ar    1  UNL1       -0.3249
     11 H          65.2430   93.1747    9.0255 H       1  UNL1        0.1437
     12 H          66.4684   94.2425    9.5410 H       1  UNL1        0.1437
     13 H          67.1596   94.3152   12.0444 H       1  UNL1        0.1686
     14 C          63.4509   90.4378   13.1810 C.3     1  UNL1        0.0757
     15 C          62.5623   89.9085   12.0946 C.ar    1  UNL1        0.0849
     16 C          61.2687   90.5161   11.6394 C.ar    1  UNL1        0.0374
     17 C          60.7182   89.6617   10.5362 C.ar    1  UNL1        0.1016
     18 N          61.6717   88.5262   10.3096 N.ar    1  UNL1       -0.2285
     19 N          62.8114   88.6787   11.2728 N.ar    1  UNL1       -0.1691
     20 C          61.5133   87.4304    9.2975 C.ar    1  UNL1        0.0830
     21 C          60.2293   87.2943    8.5341 C.ar    1  UNL1        0.0215
     22 C          60.0709   86.1986    7.5220 C.ar    1  UNL1        0.0312
     23 C          61.1966   85.2389    7.2733 C.ar    1  UNL1        0.1402
     24 F          61.0383   84.1432    6.2613 F       1  UNL1       -0.2042
     25 C          62.4806   85.3750    8.0368 C.ar    1  UNL1        0.0312
     26 C          62.6390   86.4707    9.0488 C.ar    1  UNL1        0.0215
@<TRIPOS>BOND
     1     1     2    1
     2     2     3   ar
     3     3     4   ar
     4     4    14    1
     5    14    15    1
     6    15    16   ar
     7    16    17   ar
     8    17    18   ar
     9    18    20    1
    10    20    21   ar
    11    21    22   ar
    12    22    23   ar
    13    23    24    1
    14    23    25   ar
    15    25    26   ar
    16    18    19   ar
    17     4     5   ar
    18     5     6   ar
    19     6     7   ar
    20     7     8   ar
    21     8     9   ar
    22     9    10   ar
    23    10     2   ar
    24    19    15   ar
    25     9     5    1
    26    26    20   ar
    27     1    11    1
    28     1    12    1
    29    10    13    1
@<TRIPOS>MOLECULE
*****
 26 29 0 0 0
SMALL
GASTEIGER

@<TRIPOS>ATOM
      1 N          64.6574   85.3005   15.2191 N.pl3   1  UNL1       -0.3441
      2 C          64.2156   86.4834   14.4092 C.ar    1  UNL1        0.1035
      3 C          64.4772   87.8735   14.9079 C.ar    1  UNL1        0.0297
      4 C          64.0354   89.0564   14.0981 C.ar    1  UNL1        0.0090
      5 C          63.3321   88.8489   12.7896 C.ar    1  UNL1        0.1366
      6 N          62.7841   89.8141   11.7805 N.ar    1  UNL1       -0.1258
      7 N          62.1839   89.0203   10.6582 N.ar    1  UNL1       -0.0406
      8 N          62.3608   87.5646   10.9737 N.ar    1  UNL1       -0.1095
      9 C          63.0705   87.4586   12.2909 C.ar    1  UNL1        0.1838
     10 N          63.5122   86.2758   13.1008 N.ar    1  UNL1       -0.3249
     11 H          65.1190   85.4366   16.0779 H       1  UNL1        0.1437
     12 H          64.4857   84.3880   14.8917 H       1  UNL1        0.1437
     13 H          63.3405   85.3634   12.7735 H       1  UNL1        0.1686
     14 C          64.2971   90.4467   14.5968 C.3     1  UNL1        0.0757
     15 C          65.3422   91.2962   13.9364 C.ar    1  UNL1        0.0849
     16 C          66.7592   91.4680   14.3972 C.ar    1  UNL1        0.0374
     17 C          67.4465   92.4009   13.4447 C.ar    1  UNL1        0.1016
     18 N          66.4542   92.8058   12.3952 N.ar    1  UNL1       -0.2285
     19 N          65.1536   92.1230   12.6991 N.ar    1  UNL1       -0.1691
     20 C          66.7163   93.7310   11.2440 C.ar    1  UNL1        0.0830
     21 C          67.4502   93.2336   10.0341 C.ar    1  UNL1        0.0215
     22 C          67.7123   94.1587    8.8828 C.ar    1  UNL1        0.0312
     23 C          67.2405   95.5814    8.9416 C.ar    1  UNL1        0.1402
     24 F          67.5026   96.5066    7.7904 F       1  UNL1       -0.2042
     25 C          66.5066   96.0788   10.1515 C.ar    1  UNL1        0.0312
     26 C          66.2445   95.1536   11.3027 C.ar    1  UNL1        0.0215
@<TRIPOS>BOND
     1     1     2    1
     2     2     3   ar
     3     3     4   ar
     4     4    14    1
     5    14    15    1
     6    15    16   ar
     7    16    17   ar
     8    17    18   ar
     9    18    20    1
    10    20    21   ar
    11    21    22   ar
    12    22    23   ar
    13    23    24    1
    14    23    25   ar
    15    25    26   ar
    16    18    19   ar
    17     4     5   ar
    18     5     6   ar
    19     6     7   ar
    20     7     8   ar
    21     8     9   ar
    22     9    10   ar
    23    10     2   ar
    24    19    15   ar
    25     9     5    1
    26    26    20   ar
    27     1    11    1
    28     1    12    1
    29    10    13    1
@<TRIPOS>MOLECULE
*****
 26 29 0 0 0
SMALL
GASTEIGER

@<TRIPOS>ATOM
      1 N          61.2094   89.7223    9.3781 N.pl3   1  UNL1       -0.3441
      2 C          62.2537   90.2022   10.3421 C.ar    1  UNL1        0.1035
      3 C          62.4317   89.5100   11.6608 C.ar    1  UNL1        0.0297
      4 C          63.4761   89.9898   12.6248 C.ar    1  UNL1        0.0090
      5 C          64.3423   91.1619   12.2699 C.ar    1  UNL1        0.1366
      6 N          65.4463   91.8550   13.0119 N.ar    1  UNL1       -0.1258
      7 N          65.9506   92.9756   12.1517 N.ar    1  UNL1       -0.0406
      8 N          65.1582   92.9750   10.8781 N.ar    1  UNL1       -0.1095
      9 C          64.1642   91.8541   10.9511 C.ar    1  UNL1        0.1838
     10 N          63.1199   91.3742    9.9872 N.ar    1  UNL1       -0.3249
     11 H          60.6408   88.9531    9.6109 H       1  UNL1        0.1437
     12 H          61.0925   90.1767    8.5125 H       1  UNL1        0.1437
     13 H          63.0030   91.8285    9.1217 H       1  UNL1        0.1686
     14 C          63.6541   89.2976   13.9436 C.3     1  UNL1        0.0757
     15 C          63.8816   87.8156   13.9880 C.ar    1  UNL1        0.0849
     16 C          64.6249   87.0693   15.0559 C.ar    1  UNL1        0.0374
     17 C          64.6084   85.6123   14.7002 C.ar    1  UNL1        0.1016
     18 N          63.8550   85.4580   13.4124 N.ar    1  UNL1       -0.2285
     19 N          63.4057   86.8198   12.9723 N.ar    1  UNL1       -0.1691
     20 C          63.5961   84.1683   12.6913 C.ar    1  UNL1        0.0830
     21 C          62.7174   83.1242   13.3139 C.ar    1  UNL1        0.0215
     22 C          62.4585   81.8346   12.5928 C.ar    1  UNL1        0.0312
     23 C          63.0784   81.5892   11.2491 C.ar    1  UNL1        0.1402
     24 F          62.8196   80.2996   10.5279 F       1  UNL1       -0.2042
     25 C          63.9572   82.6334   10.6265 C.ar    1  UNL1        0.0312
     26 C          64.2160   83.9229   11.3476 C.ar    1  UNL1        0.0215
@<TRIPOS>BOND
     1     1     2    1
     2     2     3   ar
     3     3     4   ar
     4     4    14    1
     5    14    15    1
     6    15    16   ar
     7    16    17   ar
     8    17    18   ar
     9    18    20    1
    10    20    21   ar
    11    21    22   ar
    12    22    23   ar
    13    23    24    1
    14    23    25   ar
    15    25    26   ar
    16    18    19   ar
    17     4     5   ar
    18     5     6   ar
    19     6     7   ar
    20     7     8   ar
    21     8     9   ar
    22     9    10   ar
    23    10     2   ar
    24    19    15   ar
    25     9     5    1
    26    26    20   ar
    27     1    11    1
    28     1    12    1
    29    10    13    1
@<TRIPOS>MOLECULE
*****
 26 29 0 0 0
SMALL
GASTEIGER

@<TRIPOS>ATOM
      1 N          64.6952   84.9761   15.6285 N.pl3   1  UNL1       -0.3441
      2 C          64.2259   83.9581   14.6316 C.ar    1  UNL1        0.1035
      3 C          64.2555   84.2747   13.1658 C.ar    1  UNL1        0.0297
      4 C          63.7861   83.2568   12.1690 C.ar    1  UNL1        0.0090
      5 C          63.2872   81.9223   12.6381 C.ar    1  UNL1        0.1366
      6 N          62.7647   80.7284   11.8954 N.ar    1  UNL1       -0.1258
      7 N          62.4122   79.6740   12.9023 N.ar    1  UNL1       -0.0406
      8 N          62.7168   80.2161   14.2673 N.ar    1  UNL1       -0.1095
      9 C          63.2576   81.6057   14.1040 C.ar    1  UNL1        0.1838
     10 N          63.7270   82.6236   15.1008 N.ar    1  UNL1       -0.3249
     11 H          65.0227   85.8520   15.3206 H       1  UNL1        0.1437
     12 H          64.6758   84.7682   16.5906 H       1  UNL1        0.1437
     13 H          63.7075   82.4158   16.0629 H       1  UNL1        0.1686
     14 C          63.8157   83.5735   10.7030 C.3     1  UNL1        0.0757
     15 C          63.0894   84.7776   10.1811 C.ar    1  UNL1        0.0849
     16 C          62.9347   85.1572    8.7381 C.ar    1  UNL1        0.0374
     17 C          62.1399   86.4277    8.6757 C.ar    1  UNL1        0.1016
     18 N          61.8034   86.8334   10.0800 N.ar    1  UNL1       -0.2285
     19 N          62.3902   85.8136   11.0104 N.ar    1  UNL1       -0.1691
     20 C          61.0179   88.0461   10.4833 C.ar    1  UNL1        0.0830
     21 C          61.1727   89.3280    9.7200 C.ar    1  UNL1        0.0215
     22 C          60.3873   90.5406   10.1232 C.ar    1  UNL1        0.0312
     23 C          59.4469   90.4713   11.2898 C.ar    1  UNL1        0.1402
     24 F          58.6614   91.6838   11.6931 F       1  UNL1       -0.2042
     25 C          59.2920   89.1893   12.0531 C.ar    1  UNL1        0.0312
     26 C          60.0775   87.9767   11.6498 C.ar    1  UNL1        0.0215
@<TRIPOS>BOND
     1     1     2    1
     2     2     3   ar
     3     3     4   ar
     4     4    14    1
     5    14    15    1
     6    15    16   ar
     7    16    17   ar
     8    17    18   ar
     9    18    20    1
    10    20    21   ar
    11    21    22   ar
    12    22    23   ar
    13    23    24    1
    14    23    25   ar
    15    25    26   ar
    16    18    19   ar
    17     4     5   ar
    18     5     6   ar
    19     6     7   ar
    20     7     8   ar
    21     8     9   ar
    22     9    10   ar
    23    10     2   ar
    24    19    15   ar
    25     9     5    1
    26    26    20   ar
    27     1    11    1
    28     1    12    1
    29    10    13    1
@<TRIPOS>MOLECULE
*****
 26 29 0 0 0
SMALL
GASTEIGER

@<TRIPOS>ATOM
      1 N          62.4554   90.7654   10.6645 N.pl3   1  UNL1       -0.3441
      2 C          63.4594   91.0429   11.7439 C.ar    1  UNL1        0.1035
      3 C          63.2111   90.5586   13.1416 C.ar    1  UNL1        0.0297
      4 C          64.2151   90.8361   14.2210 C.ar    1  UNL1        0.0090
      5 C          65.4673   91.5979   13.9026 C.ar    1  UNL1        0.1366
      6 N          66.6295   92.0190   14.7524 N.ar    1  UNL1       -0.1258
      7 N          67.5960   92.7635   13.8798 N.ar    1  UNL1       -0.0406
      8 N          67.0312   92.8026   12.4907 N.ar    1  UNL1       -0.1095
      9 C          65.7156   92.0823   12.5048 C.ar    1  UNL1        0.1838
     10 N          64.7117   91.8047   11.4255 N.ar    1  UNL1       -0.3249
     11 H          61.6335   90.2653   10.8734 H       1  UNL1        0.1437
     12 H          62.6184   91.0833    9.7471 H       1  UNL1        0.1437
     13 H          64.8746   92.1226   10.5081 H       1  UNL1        0.1686
     14 C          63.9667   90.3517   15.6188 C.3     1  UNL1        0.0757
     15 C          63.6690   88.9030   15.8688 C.ar    1  UNL1        0.0849
     16 C          63.0878   88.3263   17.1256 C.ar    1  UNL1        0.0374
     17 C          62.9599   86.8435   16.9393 C.ar    1  UNL1        0.1016
     18 N          63.4620   86.5036   15.5673 N.ar    1  UNL1       -0.2285
     19 N          63.9003   87.7765   14.9057 N.ar    1  UNL1       -0.1691
     20 C          63.5164   85.1318   14.9630 C.ar    1  UNL1        0.0830
     21 C          64.5623   84.8042   13.9390 C.ar    1  UNL1        0.0215
     22 C          64.6168   83.4325   13.3347 C.ar    1  UNL1        0.0312
     23 C          63.6250   82.3882   13.7544 C.ar    1  UNL1        0.1402
     24 F          63.6793   81.0164   13.1501 F       1  UNL1       -0.2042
     25 C          62.5790   82.7158   14.7784 C.ar    1  UNL1        0.0312
     26 C          62.5247   84.0876   15.3827 C.ar    1  UNL1        0.0215
@<TRIPOS>BOND
     1     1     2    1
     2     2     3   ar
     3     3     4   ar
     4     4    14    1
     5    14    15    1
     6    15    16   ar
     7    16    17   ar
     8    17    18   ar
     9    18    20    1
    10    20    21   ar
    11    21    22   ar
    12    22    23   ar
    13    23    24    1
    14    23    25   ar
    15    25    26   ar
    16    18    19   ar
    17     4     5   ar
    18     5     6   ar
    19     6     7   ar
    20     7     8   ar
    21     8     9   ar
    22     9    10   ar
    23    10     2   ar
    24    19    15   ar
    25     9     5    1
    26    26    20   ar
    27     1    11    1
    28     1    12    1
    29    10    13    1
@<TRIPOS>MOLECULE
*****
 26 29 0 0 0
SMALL
GASTEIGER

@<TRIPOS>ATOM
      1 N          65.4227   93.4288   10.1009 N.pl3   1  UNL1       -0.3441
      2 C          65.6184   93.0713   11.5445 C.ar    1  UNL1        0.1035
      3 C          64.8123   91.9660   12.1594 C.ar    1  UNL1        0.0297
      4 C          65.0079   91.6085   13.6030 C.ar    1  UNL1        0.0090
      5 C          66.0098   92.3565   14.4317 C.ar    1  UNL1        0.1366
      6 N          66.4183   92.2293   15.8694 N.ar    1  UNL1       -0.1258
      7 N          67.4769   93.2562   16.1430 N.ar    1  UNL1       -0.0406
      8 N          67.7227   94.0180   14.8744 N.ar    1  UNL1       -0.1095
      9 C          66.8160   93.4619   13.8168 C.ar    1  UNL1        0.1838
     10 N          66.6203   93.8194   12.3732 N.ar    1  UNL1       -0.3249
     11 H          64.7651   92.9379    9.5570 H       1  UNL1        0.1437
     12 H          65.9518   94.1544    9.6974 H       1  UNL1        0.1437
     13 H          67.1494   94.5449   11.9696 H       1  UNL1        0.1686
     14 C          64.2017   90.5030   14.2179 C.3     1  UNL1        0.0757
     15 C          63.6563   89.4035   13.3556 C.ar    1  UNL1        0.0849
     16 C          63.9169   87.9364   13.5277 C.ar    1  UNL1        0.0374
     17 C          63.1761   87.2043   12.4482 C.ar    1  UNL1        0.1016
     18 N          62.4577   88.2189   11.6090 N.ar    1  UNL1       -0.2285
     19 N          62.7544   89.5782   12.1698 N.ar    1  UNL1       -0.1691
     20 C          61.5940   87.9259   10.4180 C.ar    1  UNL1        0.0830
     21 C          61.4690   86.5202    9.9099 C.ar    1  UNL1        0.0215
     22 C          60.6054   86.2271    8.7190 C.ar    1  UNL1        0.0312
     23 C          59.8667   87.3400    8.0362 C.ar    1  UNL1        0.1402
     24 F          59.0031   87.0470    6.8453 F       1  UNL1       -0.2042
     25 C          59.9917   88.7457    8.5444 C.ar    1  UNL1        0.0312
     26 C          60.8554   89.0387    9.7353 C.ar    1  UNL1        0.0215
@<TRIPOS>BOND
     1     1     2    1
     2     2     3   ar
     3     3     4   ar
     4     4    14    1
     5    14    15    1
     6    15    16   ar
     7    16    17   ar
     8    17    18   ar
     9    18    20    1
    10    20    21   ar
    11    21    22   ar
    12    22    23   ar
    13    23    24    1
    14    23    25   ar
    15    25    26   ar
    16    18    19   ar
    17     4     5   ar
    18     5     6   ar
    19     6     7   ar
    20     7     8   ar
    21     8     9   ar
    22     9    10   ar
    23    10     2   ar
    24    19    15   ar
    25     9     5    1
    26    26    20   ar
    27     1    11    1
    28     1    12    1
    29    10    13    1
