@<TRIPOS>MOLECULE
*****
 52 58 0 0 0
SMALL
GASTEIGER

@<TRIPOS>ATOM
      1 N          61.3806   86.6375    9.2655 N.ar    1  UNL1       -0.1285
      2 N          62.2182   85.4700    8.8355 N.ar    1  UNL1       -0.0406
      3 N          62.8172   84.8517   10.0639 N.ar    1  UNL1       -0.1074
      4 C          62.3498   85.6372   11.2532 C.ar    1  UNL1        0.2075
      5 N          61.4619   86.7409   10.7598 N.ar    1  UNL1       -0.1253
      6 C          59.0355   89.3533    6.5499 C.ar    1  UNL1       -0.0207
      7 C          59.0522   87.8745    6.2993 C.ar    1  UNL1       -0.0026
      8 C          59.8339   86.9692    7.2046 C.ar    1  UNL1        0.0206
      9 C          60.5989   87.5428    8.3603 C.ar    1  UNL1        0.1045
     10 C          60.5821   89.0216    8.6109 C.ar    1  UNL1        0.0206
     11 C          59.8005   89.9269    7.7057 C.ar    1  UNL1       -0.0026
     12 C          58.2538   90.2586    5.6447 C.3     1  UNL1        0.0437
     13 C          58.7252   91.6609    5.3972 C.3     1  UNL1        0.0771
     14 C          62.9619   93.6248    0.3531 C.ar    1  UNL1        0.1721
     15 C          63.1742   92.6872    1.5045 C.ar    1  UNL1        0.0356
     16 C          62.0619   92.4306    2.4777 C.ar    1  UNL1       -0.0202
     17 C          60.7374   93.1117    2.2994 C.ar    1  UNL1       -0.0068
     18 C          60.5251   94.0494    1.1480 C.ar    1  UNL1        0.0368
     19 C          61.6374   94.3059    0.1748 C.ar    1  UNL1        0.1721
     20 C          59.6251   92.8551    3.2726 C.3     1  UNL1        0.0990
     21 N          59.8374   91.9175    4.4240 N.3     1  UNL1       -0.2683
     22 C          61.1620   91.2364    4.6022 C.3     1  UNL1        0.0771
     23 C          62.2742   91.4930    3.6291 C.3     1  UNL1        0.0435
     24 C          65.0491   94.9934   -0.3687 C.3     1  UNL1        0.2526
     25 O          64.0742   93.8815   -0.6201 O.3     1  UNL1       -0.4684
     26 O          61.4251   95.2436   -0.9766 O.3     1  UNL1       -0.4684
     27 C          60.0396   95.6985   -1.3278 C.3     1  UNL1        0.2526
     28 C          62.7074   85.3666   12.6846 C.ar    1  UNL1        0.0560
     29 C          62.3153   84.0671   13.3228 C.ar    1  UNL1        0.0444
     30 C          62.6729   83.7964   14.7541 C.ar    1  UNL1        0.1726
     31 C          63.4227   84.8253   15.5473 C.ar    1  UNL1        0.1736
     32 C          63.8148   86.1248   14.9091 C.ar    1  UNL1        0.0548
     33 C          63.4572   86.3955   13.4778 C.ar    1  UNL1        0.0569
     34 N          63.8494   87.6951   12.8395 N.am    1  UNL1       -0.2777
     35 C          63.8275   88.9618   13.6427 C.2     1  UNL1        0.2843
     36 O          63.4134   88.9289   15.0840 O.2     1  UNL1       -0.2665
     37 H          64.1211   87.7167   11.8935 H       1  UNL1        0.1553
     38 C          64.2196   90.2614   13.0045 C.ar    1  UNL1        0.2017
     39 C          63.7160   90.6061   11.6343 C.ar    1  UNL1        0.0843
     40 C          64.1081   91.9057   10.9961 C.ar    1  UNL1        0.2018
     41 O          63.6045   92.2504    9.6258 O.2     1  UNL1       -0.2864
     42 C          65.0038   92.8606   11.7282 C.ar    1  UNL1        0.0735
     43 C          65.3959   94.1602   11.0899 C.ar    1  UNL1        0.0062
     44 C          66.2917   95.1151   11.8220 C.ar    1  UNL1        0.0003
     45 C          66.7952   94.7704   13.1922 C.ar    1  UNL1        0.0031
     46 C          66.4031   93.4707   13.8305 C.ar    1  UNL1        0.0376
     47 C          65.5074   92.5158   13.0984 C.ar    1  UNL1        0.1485
     48 O          65.1153   91.2163   13.7366 O.2     1  UNL1       -0.4487
     49 O          62.2807   82.4968   15.3923 O.3     1  UNL1       -0.4684
     50 C          61.8737   81.3338   14.5368 C.3     1  UNL1        0.2526
     51 O          63.7803   84.5547   16.9787 O.3     1  UNL1       -0.4683
     52 C          63.4071   85.5418   18.0445 C.3     1  UNL1        0.2526
@<TRIPOS>BOND
     1    24    25    1
     2    25    14    1
     3    14    15   ar
     4    15    16   ar
     5    16    17   ar
     6    17    18   ar
     7    18    19   ar
     8    19    26    1
     9    26    27    1
    10    17    20    1
    11    20    21    1
    12    21    13    1
    13    13    12    1
    14    12     6    1
    15     6     7   ar
    16     7     8   ar
    17     8     9   ar
    18     9     1    1
    19     1     2   ar
    20     2     3   ar
    21     3     4   ar
    22     4    28    1
    23    28    29   ar
    24    29    30   ar
    25    30    49    1
    26    49    50    1
    27    30    31   ar
    28    31    51    1
    29    51    52    1
    30    31    32   ar
    31    32    33   ar
    32    33    34    1
    33    34    35   am
    34    35    36    2
    35    35    38    1
    36    38    39   ar
    37    39    40   ar
    38    40    41    2
    39    40    42   ar
    40    42    43   ar
    41    43    44   ar
    42    44    45   ar
    43    45    46   ar
    44    46    47   ar
    45    47    48   ar
    46     4     5   ar
    47     9    10   ar
    48    10    11   ar
    49    21    22    1
    50    22    23    1
    51    19    14   ar
    52    11     6   ar
    53    23    16    1
    54     5     1   ar
    55    33    28   ar
    56    48    38   ar
    57    47    42   ar
    58    34    37    1
@<TRIPOS>MOLECULE
*****
 52 58 0 0 0
SMALL
GASTEIGER

@<TRIPOS>ATOM
      1 N          60.5042   87.8055    9.9928 N.ar    1  UNL1       -0.1285
      2 N          60.1911   88.2273   11.3978 N.ar    1  UNL1       -0.0406
      3 N          60.8603   87.2626   12.3314 N.ar    1  UNL1       -0.1074
      4 C          61.5870   86.2446   11.5034 C.ar    1  UNL1        0.2075
      5 N          61.3669   86.5802   10.0581 N.ar    1  UNL1       -0.1253
      6 C          59.1016   89.8562    6.2408 C.ar    1  UNL1       -0.0207
      7 C          58.6658   88.4515    6.5355 C.ar    1  UNL1       -0.0026
      8 C          59.1334   87.7679    7.7862 C.ar    1  UNL1        0.0206
      9 C          60.0367   88.4891    8.7422 C.ar    1  UNL1        0.1045
     10 C          60.4724   89.8938    8.4475 C.ar    1  UNL1        0.0206
     11 C          60.0049   90.5774    7.1969 C.ar    1  UNL1       -0.0026
     12 C          58.6340   90.5397    4.9902 C.3     1  UNL1        0.0437
     13 C          59.0182   91.9655    4.7263 C.3     1  UNL1        0.0771
     14 C          63.3289   94.1632   -0.1561 C.ar    1  UNL1        0.1721
     15 C          63.5393   93.2108    0.9835 C.ar    1  UNL1        0.0356
     16 C          62.4090   92.8995    1.9192 C.ar    1  UNL1       -0.0202
     17 C          61.0683   93.5405    1.7153 C.ar    1  UNL1       -0.0068
     18 C          60.8579   94.4929    0.5756 C.ar    1  UNL1        0.0368
     19 C          61.9882   94.8042   -0.3600 C.ar    1  UNL1        0.1721
     20 C          59.9380   93.2292    2.6510 C.3     1  UNL1        0.0990
     21 N          60.1485   92.2769    3.7906 N.3     1  UNL1       -0.2683
     22 C          61.4892   91.6358    3.9945 C.3     1  UNL1        0.0771
     23 C          62.6194   91.9472    3.0588 C.3     1  UNL1        0.0435
     24 C          65.1599   95.7981   -1.0073 C.3     1  UNL1        0.2526
     25 O          64.4592   94.4745   -1.0919 O.3     1  UNL1       -0.4684
     26 O          61.7777   95.7566   -1.4997 O.3     1  UNL1       -0.4684
     27 C          61.2288   95.2568   -2.8031 C.3     1  UNL1        0.2526
     28 C          62.3924   85.0933   12.0285 C.ar    1  UNL1        0.0560
     29 C          61.9787   83.6853   11.7182 C.ar    1  UNL1        0.0444
     30 C          62.7841   82.5340   12.2433 C.ar    1  UNL1        0.1726
     31 C          64.0032   82.7907   13.0788 C.ar    1  UNL1        0.1736
     32 C          64.4169   84.1987   13.3890 C.ar    1  UNL1        0.0548
     33 C          63.6115   85.3500   12.8639 C.ar    1  UNL1        0.0569
     34 N          64.0252   86.7581   13.1742 N.am    1  UNL1       -0.2777
     35 C          63.8935   87.2879   14.5713 C.2     1  UNL1        0.2843
     36 O          63.3481   86.4096   15.6582 O.2     1  UNL1       -0.2665
     37 H          64.3832   87.3345   12.4609 H       1  UNL1        0.1553
     38 C          64.3072   88.6959   14.8817 C.ar    1  UNL1        0.2017
     39 C          63.4422   89.5568   15.7538 C.ar    1  UNL1        0.0843
     40 C          63.8558   90.9648   16.0641 C.ar    1  UNL1        0.2018
     41 O          62.9907   91.8257   16.9363 O.2     1  UNL1       -0.2864
     42 C          65.1345   91.5119   15.5024 C.ar    1  UNL1        0.0735
     43 C          65.5481   92.9200   15.8128 C.ar    1  UNL1        0.0062
     44 C          66.8268   93.4672   15.2510 C.ar    1  UNL1        0.0003
     45 C          67.6918   92.6063   14.3789 C.ar    1  UNL1        0.0031
     46 C          67.2782   91.1982   14.0685 C.ar    1  UNL1        0.0376
     47 C          65.9995   90.6510   14.6303 C.ar    1  UNL1        0.1485
     48 O          65.5859   89.2431   14.3199 O.2     1  UNL1       -0.4487
     49 O          62.3704   81.1260   11.9330 O.3     1  UNL1       -0.4684
     50 C          62.8813   80.4496   10.6955 C.3     1  UNL1        0.2526
     51 O          64.8086   81.6393   13.6039 O.3     1  UNL1       -0.4683
     52 C          64.1168   80.4563   14.2134 C.3     1  UNL1        0.2526
@<TRIPOS>BOND
     1    24    25    1
     2    25    14    1
     3    14    15   ar
     4    15    16   ar
     5    16    17   ar
     6    17    18   ar
     7    18    19   ar
     8    19    26    1
     9    26    27    1
    10    17    20    1
    11    20    21    1
    12    21    13    1
    13    13    12    1
    14    12     6    1
    15     6     7   ar
    16     7     8   ar
    17     8     9   ar
    18     9     1    1
    19     1     2   ar
    20     2     3   ar
    21     3     4   ar
    22     4    28    1
    23    28    29   ar
    24    29    30   ar
    25    30    49    1
    26    49    50    1
    27    30    31   ar
    28    31    51    1
    29    51    52    1
    30    31    32   ar
    31    32    33   ar
    32    33    34    1
    33    34    35   am
    34    35    36    2
    35    35    38    1
    36    38    39   ar
    37    39    40   ar
    38    40    41    2
    39    40    42   ar
    40    42    43   ar
    41    43    44   ar
    42    44    45   ar
    43    45    46   ar
    44    46    47   ar
    45    47    48   ar
    46     4     5   ar
    47     9    10   ar
    48    10    11   ar
    49    21    22    1
    50    22    23    1
    51    19    14   ar
    52    11     6   ar
    53    23    16    1
    54     5     1   ar
    55    33    28   ar
    56    48    38   ar
    57    47    42   ar
    58    34    37    1
@<TRIPOS>MOLECULE
*****
 52 58 0 0 0
SMALL
GASTEIGER

@<TRIPOS>ATOM
      1 N          62.0046   85.9468    9.2071 N.ar    1  UNL1       -0.1285
      2 N          63.3952   85.5870    8.7753 N.ar    1  UNL1       -0.0406
      3 N          63.8365   84.3984    9.5768 N.ar    1  UNL1       -0.1074
      4 C          62.7185   84.0235   10.5040 C.ar    1  UNL1        0.2075
      5 N          61.5863   84.9805   10.2755 N.ar    1  UNL1       -0.1253
      6 C          59.5228   89.3309    7.5827 C.ar    1  UNL1       -0.0207
      7 C          59.3639   87.9484    7.0230 C.ar    1  UNL1       -0.0026
      8 C          60.1911   86.8203    7.5645 C.ar    1  UNL1        0.0206
      9 C          61.1773   87.0749    8.6657 C.ar    1  UNL1        0.1045
     10 C          61.3363   88.4574    9.2254 C.ar    1  UNL1        0.0206
     11 C          60.5091   89.5854    8.6839 C.ar    1  UNL1       -0.0026
     12 C          58.6956   90.4590    7.0412 C.3     1  UNL1        0.0437
     13 C          58.4954   90.5990    5.5613 C.3     1  UNL1        0.0771
     14 C          62.5037   94.1051    1.2150 C.ar    1  UNL1        0.1721
     15 C          62.8244   92.9861    2.1610 C.ar    1  UNL1        0.0356
     16 C          61.7421   92.3893    3.0111 C.ar    1  UNL1       -0.0202
     17 C          60.3392   92.9116    2.9151 C.ar    1  UNL1       -0.0068
     18 C          60.0186   94.0307    1.9691 C.ar    1  UNL1        0.0368
     19 C          61.1009   94.6274    1.1190 C.ar    1  UNL1        0.1721
     20 C          59.2570   92.3148    3.7652 C.3     1  UNL1        0.0990
     21 N          59.5776   91.1958    4.7112 N.3     1  UNL1       -0.2683
     22 C          60.9805   90.6735    4.8071 C.3     1  UNL1        0.0771
     23 C          62.0627   91.2703    3.9571 C.3     1  UNL1        0.0435
     24 C          64.2408   95.9869    0.7772 C.3     1  UNL1        0.2526
     25 O          63.5860   94.7019    0.3649 O.3     1  UNL1       -0.4684
     26 O          60.7803   95.7465    0.1730 O.3     1  UNL1       -0.4684
     27 C          60.2764   95.4412   -1.2065 C.3     1  UNL1        0.2526
     28 C          62.7306   82.8906   11.4870 C.ar    1  UNL1        0.0560
     29 C          62.7594   81.4731   10.9974 C.ar    1  UNL1        0.0444
     30 C          62.7715   80.3402   11.9804 C.ar    1  UNL1        0.1726
     31 C          62.7549   80.6248   13.4531 C.ar    1  UNL1        0.1736
     32 C          62.7262   82.0423   13.9427 C.ar    1  UNL1        0.0548
     33 C          62.7141   83.1752   12.9597 C.ar    1  UNL1        0.0569
     34 N          62.6853   84.5928   13.4493 N.am    1  UNL1       -0.2777
     35 C          63.8893   85.1767   14.1272 C.2     1  UNL1        0.2843
     36 O          65.1220   84.3430   14.3154 O.2     1  UNL1       -0.2665
     37 H          61.8763   85.1400   13.3258 H       1  UNL1        0.1553
     38 C          63.8607   86.5942   14.6168 C.ar    1  UNL1        0.2017
     39 C          63.5060   86.8875   16.0445 C.ar    1  UNL1        0.0843
     40 C          63.4773   88.3049   16.5341 C.ar    1  UNL1        0.2018
     41 O          63.1226   88.5983   17.9619 O.2     1  UNL1       -0.2864
     42 C          63.8033   89.4292   15.5962 C.ar    1  UNL1        0.0735
     43 C          63.7747   90.8468   16.0859 C.ar    1  UNL1        0.0062
     44 C          64.1007   91.9710   15.1479 C.ar    1  UNL1        0.0003
     45 C          64.4553   91.6778   13.7202 C.ar    1  UNL1        0.0031
     46 C          64.4840   90.2602   13.2305 C.ar    1  UNL1        0.0376
     47 C          64.1580   89.1359   14.1685 C.ar    1  UNL1        0.1485
     48 O          64.1867   87.7185   13.6788 O.2     1  UNL1       -0.4487
     49 O          62.8002   78.9227   11.4907 O.3     1  UNL1       -0.4684
     50 C          62.7927   78.6376   10.0181 C.3     1  UNL1        0.2526
     51 O          62.7670   79.4919   14.4361 O.3     1  UNL1       -0.4683
     52 C          61.9159   78.2805   14.1949 C.3     1  UNL1        0.2526
@<TRIPOS>BOND
     1    24    25    1
     2    25    14    1
     3    14    15   ar
     4    15    16   ar
     5    16    17   ar
     6    17    18   ar
     7    18    19   ar
     8    19    26    1
     9    26    27    1
    10    17    20    1
    11    20    21    1
    12    21    13    1
    13    13    12    1
    14    12     6    1
    15     6     7   ar
    16     7     8   ar
    17     8     9   ar
    18     9     1    1
    19     1     2   ar
    20     2     3   ar
    21     3     4   ar
    22     4    28    1
    23    28    29   ar
    24    29    30   ar
    25    30    49    1
    26    49    50    1
    27    30    31   ar
    28    31    51    1
    29    51    52    1
    30    31    32   ar
    31    32    33   ar
    32    33    34    1
    33    34    35   am
    34    35    36    2
    35    35    38    1
    36    38    39   ar
    37    39    40   ar
    38    40    41    2
    39    40    42   ar
    40    42    43   ar
    41    43    44   ar
    42    44    45   ar
    43    45    46   ar
    44    46    47   ar
    45    47    48   ar
    46     4     5   ar
    47     9    10   ar
    48    10    11   ar
    49    21    22    1
    50    22    23    1
    51    19    14   ar
    52    11     6   ar
    53    23    16    1
    54     5     1   ar
    55    33    28   ar
    56    48    38   ar
    57    47    42   ar
    58    34    37    1
@<TRIPOS>MOLECULE
*****
 52 58 0 0 0
SMALL
GASTEIGER

@<TRIPOS>ATOM
      1 N          63.0813   86.6705   15.6871 N.ar    1  UNL1       -0.1285
      2 N          62.3888   85.8873   16.7628 N.ar    1  UNL1       -0.0406
      3 N          62.1844   84.4891   16.2595 N.ar    1  UNL1       -0.1074
      4 C          62.7506   84.4081   14.8728 C.ar    1  UNL1        0.2075
      5 N          63.3049   85.7563   14.5191 N.ar    1  UNL1       -0.1253
      6 C          64.2779   91.0020   15.9230 C.ar    1  UNL1       -0.0207
      7 C          64.6842   90.1751   14.7393 C.ar    1  UNL1       -0.0026
      8 C          64.2853   88.7312   14.6607 C.ar    1  UNL1        0.0206
      9 C          63.4801   88.1143   15.7658 C.ar    1  UNL1        0.1045
     10 C          63.0738   88.9413   16.9494 C.ar    1  UNL1        0.0206
     11 C          63.4727   90.3851   17.0281 C.ar    1  UNL1       -0.0026
     12 C          64.6767   92.4459   16.0016 C.3     1  UNL1        0.0437
     13 C          66.1022   92.8445   15.7585 C.3     1  UNL1        0.0771
     14 C          68.0877   93.0183    9.1799 C.ar    1  UNL1        0.1721
     15 C          68.5271   92.1422   10.3154 C.ar    1  UNL1        0.0356
     16 C          67.9208   92.3178   11.6762 C.ar    1  UNL1       -0.0202
     17 C          66.8753   93.3695   11.9015 C.ar    1  UNL1       -0.0068
     18 C          66.4359   94.2456   10.7659 C.ar    1  UNL1        0.0368
     19 C          67.0421   94.0700    9.4052 C.ar    1  UNL1        0.1721
     20 C          66.2691   93.5450   13.2622 C.3     1  UNL1        0.0990
     21 N          66.7084   92.6689   14.3977 N.3     1  UNL1       -0.2683
     22 C          67.7540   91.6173   14.1724 C.3     1  UNL1        0.0771
     23 C          68.3602   91.4417   12.8117 C.3     1  UNL1        0.0435
     24 C          69.5849   91.6686    7.5408 C.3     1  UNL1        0.2526
     25 O          68.6939   92.8428    7.8191 O.3     1  UNL1       -0.4684
     26 O          66.6028   94.9461    8.2696 O.3     1  UNL1       -0.4684
     27 C          67.1704   96.3270    8.1247 C.3     1  UNL1        0.2526
     28 C          62.7607   83.1925   13.9941 C.ar    1  UNL1        0.0560
     29 C          63.2146   81.8731   14.5444 C.ar    1  UNL1        0.0444
     30 C          63.2247   80.6574   13.6658 C.ar    1  UNL1        0.1726
     31 C          62.7808   80.7612   12.2367 C.ar    1  UNL1        0.1736
     32 C          62.3269   82.0806   11.6864 C.ar    1  UNL1        0.0548
     33 C          62.3168   83.2963   12.5650 C.ar    1  UNL1        0.0569
     34 N          61.8628   84.6158   12.0147 N.am    1  UNL1       -0.2777
     35 C          62.3111   85.0543   10.6520 C.2     1  UNL1        0.2843
     36 O          63.2134   84.1733    9.8398 O.2     1  UNL1       -0.2665
     37 H          61.2706   85.1941   12.5478 H       1  UNL1        0.1553
     38 C          61.8572   86.3737   10.1016 C.ar    1  UNL1        0.2017
     39 C          62.3749   87.6512   10.6932 C.ar    1  UNL1        0.0843
     40 C          61.9210   88.9707   10.1429 C.ar    1  UNL1        0.2018
     41 O          62.4387   90.2482   10.7346 O.2     1  UNL1       -0.2864
     42 C          60.9494   89.0127    9.0008 C.ar    1  UNL1        0.0735
     43 C          60.4955   90.3322    8.4504 C.ar    1  UNL1        0.0062
     44 C          59.5239   90.3742    7.3084 C.ar    1  UNL1        0.0003
     45 C          59.0062   89.0967    6.7168 C.ar    1  UNL1        0.0031
     46 C          59.4601   87.7772    7.2672 C.ar    1  UNL1        0.0376
     47 C          60.4317   87.7352    8.4092 C.ar    1  UNL1        0.1485
     48 O          60.8856   86.4157    8.9595 O.2     1  UNL1       -0.4487
     49 O          63.6786   79.3380   14.2162 O.3     1  UNL1       -0.4684
     50 C          62.6927   78.2224   14.3992 C.3     1  UNL1        0.2526
     51 O          62.7909   79.5456   11.3580 O.3     1  UNL1       -0.4683
     52 C          62.9228   79.6957    9.8715 C.3     1  UNL1        0.2526
@<TRIPOS>BOND
     1    24    25    1
     2    25    14    1
     3    14    15   ar
     4    15    16   ar
     5    16    17   ar
     6    17    18   ar
     7    18    19   ar
     8    19    26    1
     9    26    27    1
    10    17    20    1
    11    20    21    1
    12    21    13    1
    13    13    12    1
    14    12     6    1
    15     6     7   ar
    16     7     8   ar
    17     8     9   ar
    18     9     1    1
    19     1     2   ar
    20     2     3   ar
    21     3     4   ar
    22     4    28    1
    23    28    29   ar
    24    29    30   ar
    25    30    49    1
    26    49    50    1
    27    30    31   ar
    28    31    51    1
    29    51    52    1
    30    31    32   ar
    31    32    33   ar
    32    33    34    1
    33    34    35   am
    34    35    36    2
    35    35    38    1
    36    38    39   ar
    37    39    40   ar
    38    40    41    2
    39    40    42   ar
    40    42    43   ar
    41    43    44   ar
    42    44    45   ar
    43    45    46   ar
    44    46    47   ar
    45    47    48   ar
    46     4     5   ar
    47     9    10   ar
    48    10    11   ar
    49    21    22    1
    50    22    23    1
    51    19    14   ar
    52    11     6   ar
    53    23    16    1
    54     5     1   ar
    55    33    28   ar
    56    48    38   ar
    57    47    42   ar
    58    34    37    1
@<TRIPOS>MOLECULE
*****
 52 58 0 0 0
SMALL
GASTEIGER

@<TRIPOS>ATOM
      1 N          63.2182   86.5997   15.6972 N.ar    1  UNL1       -0.1285
      2 N          62.5534   85.7574   16.7453 N.ar    1  UNL1       -0.0406
      3 N          62.3818   84.3750   16.1889 N.ar    1  UNL1       -0.1074
      4 C          62.9404   84.3629   14.7968 C.ar    1  UNL1        0.2075
      5 N          63.4573   85.7379   14.4929 N.ar    1  UNL1       -0.1253
      6 C          64.3043   90.9484   16.0954 C.ar    1  UNL1       -0.0207
      7 C          64.8840   90.1297   14.9802 C.ar    1  UNL1       -0.0026
      8 C          64.5220   88.6800   14.8475 C.ar    1  UNL1        0.0206
      9 C          63.5802   88.0492   15.8299 C.ar    1  UNL1        0.1045
     10 C          63.0004   88.8680   16.9450 C.ar    1  UNL1        0.0206
     11 C          63.3624   90.3176   17.0778 C.ar    1  UNL1       -0.0026
     12 C          64.6663   92.3980   16.2281 C.3     1  UNL1        0.0437
     13 C          66.0731   92.8469   15.9646 C.3     1  UNL1        0.0771
     14 C          68.0068   93.1953    9.3776 C.ar    1  UNL1        0.1721
     15 C          68.4291   92.2665   10.4771 C.ar    1  UNL1        0.0356
     16 C          67.8401   92.4116   11.8490 C.ar    1  UNL1       -0.0202
     17 C          66.8288   93.4855   12.1213 C.ar    1  UNL1       -0.0068
     18 C          66.4066   94.4143   11.0217 C.ar    1  UNL1        0.0368
     19 C          66.9956   94.2692    9.6498 C.ar    1  UNL1        0.1721
     20 C          66.2398   93.6306   13.4931 C.3     1  UNL1        0.0990
     21 N          66.6621   92.7018   14.5927 N.3     1  UNL1       -0.2683
     22 C          67.6733   91.6279   14.3204 C.3     1  UNL1        0.0771
     23 C          68.2623   91.4828   12.9486 C.3     1  UNL1        0.0435
     24 C          69.3423   91.8021    7.6381 C.3     1  UNL1        0.2526
     25 O          68.5958   93.0502    8.0056 O.3     1  UNL1       -0.4684
     26 O          66.5733   95.1980    8.5502 O.3     1  UNL1       -0.4684
     27 C          67.4238   96.3834    8.2019 C.3     1  UNL1        0.2526
     28 C          62.9759   83.1831   13.8712 C.ar    1  UNL1        0.0560
     29 C          62.8602   81.7932   14.4231 C.ar    1  UNL1        0.0444
     30 C          62.8957   80.6134   13.4975 C.ar    1  UNL1        0.1726
     31 C          63.0468   80.8235   12.0200 C.ar    1  UNL1        0.1736
     32 C          63.1625   82.2134   11.4681 C.ar    1  UNL1        0.0548
     33 C          63.1271   83.3933   12.3937 C.ar    1  UNL1        0.0569
     34 N          63.2428   84.7833   11.8418 N.am    1  UNL1       -0.2777
     35 C          62.0618   85.7072   11.8829 C.2     1  UNL1        0.2843
     36 O          60.7652   85.2412   12.4757 O.2     1  UNL1       -0.2665
     37 H          64.0938   85.0892   11.4527 H       1  UNL1        0.1553
     38 C          62.1774   87.0972   11.3310 C.ar    1  UNL1        0.2017
     39 C          61.3572   87.5029   10.1425 C.ar    1  UNL1        0.0843
     40 C          61.4728   88.8928    9.5906 C.ar    1  UNL1        0.2018
     41 O          60.6525   89.2986    8.4020 O.2     1  UNL1       -0.2864
     42 C          62.4087   89.8771   10.2273 C.ar    1  UNL1        0.0735
     43 C          62.5243   91.2672    9.6753 C.ar    1  UNL1        0.0062
     44 C          63.4602   92.2515   10.3120 C.ar    1  UNL1        0.0003
     45 C          64.2804   91.8458   11.5005 C.ar    1  UNL1        0.0031
     46 C          64.1648   90.4557   12.0524 C.ar    1  UNL1        0.0376
     47 C          63.2289   89.4714   11.4158 C.ar    1  UNL1        0.1485
     48 O          63.1133   88.0815   11.9677 O.2     1  UNL1       -0.4487
     49 O          62.7800   79.2234   14.0494 O.3     1  UNL1       -0.4684
     50 C          61.4586   78.5140   14.0241 C.3     1  UNL1        0.2526
     51 O          63.0823   79.6437   11.0944 O.3     1  UNL1       -0.4683
     52 C          62.9441   79.8469    9.6147 C.3     1  UNL1        0.2526
@<TRIPOS>BOND
     1    24    25    1
     2    25    14    1
     3    14    15   ar
     4    15    16   ar
     5    16    17   ar
     6    17    18   ar
     7    18    19   ar
     8    19    26    1
     9    26    27    1
    10    17    20    1
    11    20    21    1
    12    21    13    1
    13    13    12    1
    14    12     6    1
    15     6     7   ar
    16     7     8   ar
    17     8     9   ar
    18     9     1    1
    19     1     2   ar
    20     2     3   ar
    21     3     4   ar
    22     4    28    1
    23    28    29   ar
    24    29    30   ar
    25    30    49    1
    26    49    50    1
    27    30    31   ar
    28    31    51    1
    29    51    52    1
    30    31    32   ar
    31    32    33   ar
    32    33    34    1
    33    34    35   am
    34    35    36    2
    35    35    38    1
    36    38    39   ar
    37    39    40   ar
    38    40    41    2
    39    40    42   ar
    40    42    43   ar
    41    43    44   ar
    42    44    45   ar
    43    45    46   ar
    44    46    47   ar
    45    47    48   ar
    46     4     5   ar
    47     9    10   ar
    48    10    11   ar
    49    21    22    1
    50    22    23    1
    51    19    14   ar
    52    11     6   ar
    53    23    16    1
    54     5     1   ar
    55    33    28   ar
    56    48    38   ar
    57    47    42   ar
    58    34    37    1
