@<TRIPOS>MOLECULE
*****
 21 23 0 0 0
SMALL
GASTEIGER

@<TRIPOS>ATOM
      1 C          63.8721   89.8526   13.4020 C.ar    1  UNL1        0.1378
      2 N          63.2478   90.5862   12.2522 N.ar    1  UNL1       -0.1770
      3 C          62.5473   89.8231   11.1673 C.ar    1  UNL1        0.3551
      4 O          61.9230   90.5568   10.0174 O.2     1  UNL1       -0.2440
      5 N          62.4712   88.3265   11.2321 N.ar    1  UNL1       -0.2588
      6 C          63.0955   87.5928   12.3820 C.ar    1  UNL1        0.0717
      7 C          63.0193   86.0962   12.4468 C.ar    1  UNL1        0.0291
      8 C          63.6436   85.3626   13.5966 C.ar    1  UNL1        0.0591
      9 CL         63.5675   83.8659   13.6615 Cl      1  UNL1       -0.0822
     10 C          64.3441   86.1257   14.6815 C.ar    1  UNL1        0.0116
     11 C          64.4203   87.6223   14.6167 C.ar    1  UNL1        0.0051
     12 C          63.7960   88.3559   13.4669 C.ar    1  UNL1        0.0480
     13 C          61.7707   87.5634   10.1472 C.ar    1  UNL1        0.0683
     14 C          62.5525   86.6578    9.2424 C.ar    1  UNL1        0.0177
     15 C          61.8520   85.8947    8.1575 C.ar    1  UNL1        0.0015
     16 C          60.3697   86.0373    7.9774 C.ar    1  UNL1        0.0001
     17 C          59.5878   86.9430    8.8821 C.ar    1  UNL1        0.0015
     18 C          60.2883   87.7060    9.9671 C.ar    1  UNL1        0.0177
     19 C          63.8772   90.8751   15.7903 C.3     1  UNL1        0.1136
     20 N          64.5726   90.6157   14.4869 N.pl3   1  UNL1       -0.2896
     21 C          65.9686   91.1193   14.2683 C.3     1  UNL1        0.1136
@<TRIPOS>BOND
     1    19    20    1
     2    20    21    1
     3    20     1    1
     4     1     2   ar
     5     2     3   ar
     6     3     4    2
     7     3     5   ar
     8     5    13    1
     9    13    14   ar
    10    14    15   ar
    11    15    16   ar
    12    16    17   ar
    13    17    18   ar
    14     5     6   ar
    15     6     7   ar
    16     7     8   ar
    17     8     9    1
    18     8    10   ar
    19    10    11   ar
    20    11    12   ar
    21    12     1   ar
    22    18    13   ar
    23    12     6   ar
@<TRIPOS>MOLECULE
*****
 21 23 0 0 0
SMALL
GASTEIGER

@<TRIPOS>ATOM
      1 C          63.4961   88.4546   13.0603 C.ar    1  UNL1        0.1378
      2 N          64.1328   87.5016   14.0280 N.ar    1  UNL1       -0.1770
      3 C          64.0073   86.0220   13.8159 C.ar    1  UNL1        0.3551
      4 O          64.6441   85.0690   14.7836 O.2     1  UNL1       -0.2440
      5 N          63.2451   85.4954   12.6362 N.ar    1  UNL1       -0.2588
      6 C          62.6083   86.4484   11.6685 C.ar    1  UNL1        0.0717
      7 C          61.8461   85.9218   10.4888 C.ar    1  UNL1        0.0291
      8 C          61.2094   86.8748    9.5212 C.ar    1  UNL1        0.0591
      9 CL         60.4472   86.3482    8.3415 Cl      1  UNL1       -0.0822
     10 C          61.3349   88.3544    9.7333 C.ar    1  UNL1        0.0116
     11 C          62.0971   88.8810   10.9130 C.ar    1  UNL1        0.0051
     12 C          62.7338   87.9280   11.8806 C.ar    1  UNL1        0.0480
     13 C          63.1196   84.0157   12.4241 C.ar    1  UNL1        0.0683
     14 C          63.7624   83.3718   11.2316 C.ar    1  UNL1        0.0177
     15 C          63.6369   81.8922   11.0196 C.ar    1  UNL1        0.0015
     16 C          62.8687   81.0565   12.0000 C.ar    1  UNL1        0.0001
     17 C          62.2258   81.7004   13.1926 C.ar    1  UNL1        0.0015
     18 C          62.3513   83.1800   13.4047 C.ar    1  UNL1        0.0177
     19 C          63.8462   90.8434   12.1007 C.3     1  UNL1        0.1136
     20 N          63.6215   89.9342   13.2724 N.pl3   1  UNL1       -0.2896
     21 C          63.5223   90.5046   14.6562 C.3     1  UNL1        0.1136
@<TRIPOS>BOND
     1    19    20    1
     2    20    21    1
     3    20     1    1
     4     1     2   ar
     5     2     3   ar
     6     3     4    2
     7     3     5   ar
     8     5    13    1
     9    13    14   ar
    10    14    15   ar
    11    15    16   ar
    12    16    17   ar
    13    17    18   ar
    14     5     6   ar
    15     6     7   ar
    16     7     8   ar
    17     8     9    1
    18     8    10   ar
    19    10    11   ar
    20    11    12   ar
    21    12     1   ar
    22    18    13   ar
    23    12     6   ar
@<TRIPOS>MOLECULE
*****
 21 23 0 0 0
SMALL
GASTEIGER

@<TRIPOS>ATOM
      1 C          62.1923   87.6982   10.4872 C.ar    1  UNL1        0.1378
      2 N          62.2492   89.1857   10.3022 N.ar    1  UNL1       -0.1770
      3 C          62.8849   90.0483   11.3519 C.ar    1  UNL1        0.3551
      4 O          62.9418   91.5358   11.1668 O.2     1  UNL1       -0.2440
      5 N          63.4636   89.4234   12.5866 N.ar    1  UNL1       -0.2588
      6 C          63.4067   87.9359   12.7717 C.ar    1  UNL1        0.0717
      7 C          63.9854   87.3111   14.0064 C.ar    1  UNL1        0.0291
      8 C          63.9285   85.8237   14.1915 C.ar    1  UNL1        0.0591
      9 CL         64.5072   85.1988   15.4263 Cl      1  UNL1       -0.0822
     10 C          63.2928   84.9611   13.1418 C.ar    1  UNL1        0.0116
     11 C          62.7141   85.5859   11.9070 C.ar    1  UNL1        0.0051
     12 C          62.7710   87.0733   11.7220 C.ar    1  UNL1        0.0480
     13 C          64.0993   90.2860   13.6363 C.ar    1  UNL1        0.0683
     14 C          65.3693   91.0241   13.3324 C.ar    1  UNL1        0.0177
     15 C          66.0049   91.8867   14.3821 C.ar    1  UNL1        0.0015
     16 C          65.3706   92.0112   15.7357 C.ar    1  UNL1        0.0001
     17 C          64.1006   91.2731   16.0396 C.ar    1  UNL1        0.0015
     18 C          63.4649   90.4105   14.9899 C.ar    1  UNL1        0.0177
     19 C          62.4006   85.9009    8.6228 C.3     1  UNL1        0.1136
     20 N          61.5566   86.8356    9.4375 N.pl3   1  UNL1       -0.2896
     21 C          60.0768   86.9078    9.2026 C.3     1  UNL1        0.1136
@<TRIPOS>BOND
     1    19    20    1
     2    20    21    1
     3    20     1    1
     4     1     2   ar
     5     2     3   ar
     6     3     4    2
     7     3     5   ar
     8     5    13    1
     9    13    14   ar
    10    14    15   ar
    11    15    16   ar
    12    16    17   ar
    13    17    18   ar
    14     5     6   ar
    15     6     7   ar
    16     7     8   ar
    17     8     9    1
    18     8    10   ar
    19    10    11   ar
    20    11    12   ar
    21    12     1   ar
    22    18    13   ar
    23    12     6   ar
@<TRIPOS>MOLECULE
*****
 21 23 0 0 0
SMALL
GASTEIGER

@<TRIPOS>ATOM
      1 C          63.7725   85.9451   13.8249 C.ar    1  UNL1        0.1378
      2 N          63.4306   84.6237   13.2030 N.ar    1  UNL1       -0.1770
      3 C          62.8123   84.5751   11.8373 C.ar    1  UNL1        0.3551
      4 O          62.4703   83.2535   11.2154 O.2     1  UNL1       -0.2440
      5 N          62.5359   85.8480   11.0934 N.ar    1  UNL1       -0.2588
      6 C          62.8778   87.1695   11.7153 C.ar    1  UNL1        0.0717
      7 C          62.6014   88.4424   10.9714 C.ar    1  UNL1        0.0291
      8 C          62.9434   89.7638   11.5933 C.ar    1  UNL1        0.0591
      9 CL         62.6670   91.0368   10.8494 Cl      1  UNL1       -0.0822
     10 C          63.5617   89.8124   12.9591 C.ar    1  UNL1        0.0116
     11 C          63.8381   88.5395   13.7029 C.ar    1  UNL1        0.0051
     12 C          63.4962   87.2181   13.0810 C.ar    1  UNL1        0.0480
     13 C          61.9175   85.7994    9.7276 C.ar    1  UNL1        0.0683
     14 C          60.5252   86.3155    9.5159 C.ar    1  UNL1        0.0177
     15 C          59.9069   86.2669    8.1502 C.ar    1  UNL1        0.0015
     16 C          60.6809   85.7022    6.9961 C.ar    1  UNL1        0.0001
     17 C          62.0733   85.1860    7.2078 C.ar    1  UNL1        0.0015
     18 C          62.6917   85.2346    8.5735 C.ar    1  UNL1        0.0177
     19 C          65.8835   86.0090   15.3381 C.3     1  UNL1        0.1136
     20 N          64.3909   85.9937   15.1907 N.pl3   1  UNL1       -0.2896
     21 C          63.5165   86.0271   16.4091 C.3     1  UNL1        0.1136
@<TRIPOS>BOND
     1    19    20    1
     2    20    21    1
     3    20     1    1
     4     1     2   ar
     5     2     3   ar
     6     3     4    2
     7     3     5   ar
     8     5    13    1
     9    13    14   ar
    10    14    15   ar
    11    15    16   ar
    12    16    17   ar
    13    17    18   ar
    14     5     6   ar
    15     6     7   ar
    16     7     8   ar
    17     8     9    1
    18     8    10   ar
    19    10    11   ar
    20    11    12   ar
    21    12     1   ar
    22    18    13   ar
    23    12     6   ar
@<TRIPOS>MOLECULE
*****
 21 23 0 0 0
SMALL
GASTEIGER

@<TRIPOS>ATOM
      1 C          63.4972   84.5068   12.4477 C.ar    1  UNL1        0.1378
      2 N          64.1295   84.5950   13.8050 N.ar    1  UNL1       -0.1770
      3 C          64.2543   85.9239   14.4893 C.ar    1  UNL1        0.3551
      4 O          64.8866   86.0120   15.8467 O.2     1  UNL1       -0.2440
      5 N          63.7469   87.1647   13.8163 N.ar    1  UNL1       -0.2588
      6 C          63.1146   87.0765   12.4589 C.ar    1  UNL1        0.0717
      7 C          62.6072   88.3173   11.7859 C.ar    1  UNL1        0.0291
      8 C          61.9749   88.2291   10.4286 C.ar    1  UNL1        0.0591
      9 CL         61.4674   89.4700    9.7555 Cl      1  UNL1       -0.0822
     10 C          61.8500   86.9002    9.7443 C.ar    1  UNL1        0.0116
     11 C          62.3574   85.6594   10.4173 C.ar    1  UNL1        0.0051
     12 C          62.9897   85.7476   11.7746 C.ar    1  UNL1        0.0480
     13 C          63.8718   88.4936   14.5007 C.ar    1  UNL1        0.0683
     14 C          64.6165   89.6128   13.8353 C.ar    1  UNL1        0.0177
     15 C          64.7413   90.9418   14.5196 C.ar    1  UNL1        0.0015
     16 C          64.1215   91.1515   15.8693 C.ar    1  UNL1        0.0001
     17 C          63.3767   90.0323   16.5348 C.ar    1  UNL1        0.0015
     18 C          63.2519   88.7033   15.8504 C.ar    1  UNL1        0.0177
     19 C          62.3606   82.1795   12.2426 C.3     1  UNL1        0.1136
     20 N          63.3723   83.1778   11.7633 N.pl3   1  UNL1       -0.2896
     21 C          64.2592   82.8472   10.5996 C.3     1  UNL1        0.1136
@<TRIPOS>BOND
     1    19    20    1
     2    20    21    1
     3    20     1    1
     4     1     2   ar
     5     2     3   ar
     6     3     4    2
     7     3     5   ar
     8     5    13    1
     9    13    14   ar
    10    14    15   ar
    11    15    16   ar
    12    16    17   ar
    13    17    18   ar
    14     5     6   ar
    15     6     7   ar
    16     7     8   ar
    17     8     9    1
    18     8    10   ar
    19    10    11   ar
    20    11    12   ar
    21    12     1   ar
    22    18    13   ar
    23    12     6   ar
@<TRIPOS>MOLECULE
*****
 21 23 0 0 0
SMALL
GASTEIGER

@<TRIPOS>ATOM
      1 C          62.2718   88.7486   10.8294 C.ar    1  UNL1        0.1378
      2 N          61.8125   87.8564    9.7145 N.ar    1  UNL1       -0.1770
      3 C          62.0198   86.3737    9.8066 C.ar    1  UNL1        0.3551
      4 O          61.5605   85.4815    8.6917 O.2     1  UNL1       -0.2440
      5 N          62.6864   85.7832   11.0136 N.ar    1  UNL1       -0.2588
      6 C          63.1458   86.6754   12.1285 C.ar    1  UNL1        0.0717
      7 C          63.8124   86.0848   13.3355 C.ar    1  UNL1        0.0291
      8 C          64.2717   86.9770   14.4504 C.ar    1  UNL1        0.0591
      9 CL         64.9383   86.3865   15.6574 Cl      1  UNL1       -0.0822
     10 C          64.0643   88.4598   14.3583 C.ar    1  UNL1        0.0116
     11 C          63.3977   89.0503   13.1513 C.ar    1  UNL1        0.0051
     12 C          62.9384   88.1581   12.0364 C.ar    1  UNL1        0.0480
     13 C          62.8938   84.3004   11.1057 C.ar    1  UNL1        0.0683
     14 C          63.8269   83.6130   10.1535 C.ar    1  UNL1        0.0177
     15 C          64.0342   82.1303   10.2456 C.ar    1  UNL1        0.0015
     16 C          63.3084   81.3349   11.2899 C.ar    1  UNL1        0.0001
     17 C          62.3753   82.0223   12.2422 C.ar    1  UNL1        0.0015
     18 C          62.1679   83.5051   12.1501 C.ar    1  UNL1        0.0177
     19 C          63.1994   91.1235   10.3301 C.3     1  UNL1        0.1136
     20 N          62.0644   90.2314   10.7373 N.pl3   1  UNL1       -0.2896
     21 C          60.7220   90.8220   11.0523 C.3     1  UNL1        0.1136
@<TRIPOS>BOND
     1    19    20    1
     2    20    21    1
     3    20     1    1
     4     1     2   ar
     5     2     3   ar
     6     3     4    2
     7     3     5   ar
     8     5    13    1
     9    13    14   ar
    10    14    15   ar
    11    15    16   ar
    12    16    17   ar
    13    17    18   ar
    14     5     6   ar
    15     6     7   ar
    16     7     8   ar
    17     8     9    1
    18     8    10   ar
    19    10    11   ar
    20    11    12   ar
    21    12     1   ar
    22    18    13   ar
    23    12     6   ar
@<TRIPOS>MOLECULE
*****
 21 23 0 0 0
SMALL
GASTEIGER

@<TRIPOS>ATOM
      1 C          62.3701   89.7189   12.4545 C.ar    1  UNL1        0.1378
      2 N          62.6187   89.2775   13.8663 N.ar    1  UNL1       -0.1770
      3 C          63.7734   89.8451   14.6373 C.ar    1  UNL1        0.3551
      4 O          64.0220   89.4036   16.0492 O.2     1  UNL1       -0.2440
      5 N          64.6796   90.8540   13.9964 N.ar    1  UNL1       -0.2588
      6 C          64.4310   91.2955   12.5845 C.ar    1  UNL1        0.0717
      7 C          65.3372   92.3045   11.9436 C.ar    1  UNL1        0.0291
      8 C          65.0886   92.7459   10.5318 C.ar    1  UNL1        0.0591
      9 CL         65.9949   93.7549    9.8909 Cl      1  UNL1       -0.0822
     10 C          63.9339   92.1783    9.7608 C.ar    1  UNL1        0.0116
     11 C          63.0277   91.1693   10.4017 C.ar    1  UNL1        0.0051
     12 C          63.2763   90.7279   11.8136 C.ar    1  UNL1        0.0480
     13 C          65.8344   91.4216   14.7674 C.ar    1  UNL1        0.0683
     14 C          65.5830   92.2698   15.9787 C.ar    1  UNL1        0.0177
     15 C          66.7378   92.8373   16.7497 C.ar    1  UNL1        0.0015
     16 C          68.1439   92.5567   16.3093 C.ar    1  UNL1        0.0001
     17 C          68.3954   91.7085   15.0979 C.ar    1  UNL1        0.0015
     18 C          67.2406   91.1409   14.3270 C.ar    1  UNL1        0.0177
     19 C          61.4591   88.1367   10.6061 C.3     1  UNL1        0.1136
     20 N          61.2153   89.1513   11.6835 N.pl3   1  UNL1       -0.2896
     21 C          59.8166   89.5985   11.9901 C.3     1  UNL1        0.1136
@<TRIPOS>BOND
     1    19    20    1
     2    20    21    1
     3    20     1    1
     4     1     2   ar
     5     2     3   ar
     6     3     4    2
     7     3     5   ar
     8     5    13    1
     9    13    14   ar
    10    14    15   ar
    11    15    16   ar
    12    16    17   ar
    13    17    18   ar
    14     5     6   ar
    15     6     7   ar
    16     7     8   ar
    17     8     9    1
    18     8    10   ar
    19    10    11   ar
    20    11    12   ar
    21    12     1   ar
    22    18    13   ar
    23    12     6   ar
@<TRIPOS>MOLECULE
*****
 21 23 0 0 0
SMALL
GASTEIGER

@<TRIPOS>ATOM
      1 C          62.9482   83.9646   12.0262 C.ar    1  UNL1        0.1378
      2 N          62.0665   84.2086   10.8376 N.ar    1  UNL1       -0.1770
      3 C          61.6423   85.6055   10.4926 C.ar    1  UNL1        0.3551
      4 O          60.7605   85.8495    9.3038 O.2     1  UNL1       -0.2440
      5 N          62.0999   86.7582   11.3362 N.ar    1  UNL1       -0.2588
      6 C          62.9817   86.5141   12.5249 C.ar    1  UNL1        0.0717
      7 C          63.4393   87.6668   13.3686 C.ar    1  UNL1        0.0291
      8 C          64.3210   87.4228   14.5572 C.ar    1  UNL1        0.0591
      9 CL         64.7787   88.5755   15.4010 Cl      1  UNL1       -0.0822
     10 C          64.7452   86.0260   14.9022 C.ar    1  UNL1        0.0116
     11 C          64.2876   84.8732   14.0586 C.ar    1  UNL1        0.0051
     12 C          63.4059   85.1173   12.8699 C.ar    1  UNL1        0.0480
     13 C          61.6758   88.1550   10.9912 C.ar    1  UNL1        0.0683
     14 C          60.2863   88.6184   11.3147 C.ar    1  UNL1        0.0177
     15 C          59.8622   90.0152   10.9697 C.ar    1  UNL1        0.0015
     16 C          60.8275   90.9486   10.3012 C.ar    1  UNL1        0.0001
     17 C          62.2170   90.4852    9.9778 C.ar    1  UNL1        0.0015
     18 C          62.6412   89.0884   10.3227 C.ar    1  UNL1        0.0177
     19 C          62.4898   81.7048   13.2234 C.3     1  UNL1        0.1136
     20 N          63.3724   82.5677   12.3712 N.pl3   1  UNL1       -0.2896
     21 C          64.6792   82.0339   11.8639 C.3     1  UNL1        0.1136
@<TRIPOS>BOND
     1    19    20    1
     2    20    21    1
     3    20     1    1
     4     1     2   ar
     5     2     3   ar
     6     3     4    2
     7     3     5   ar
     8     5    13    1
     9    13    14   ar
    10    14    15   ar
    11    15    16   ar
    12    16    17   ar
    13    17    18   ar
    14     5     6   ar
    15     6     7   ar
    16     7     8   ar
    17     8     9    1
    18     8    10   ar
    19    10    11   ar
    20    11    12   ar
    21    12     1   ar
    22    18    13   ar
    23    12     6   ar
@<TRIPOS>MOLECULE
*****
 21 23 0 0 0
SMALL
GASTEIGER

@<TRIPOS>ATOM
      1 C          62.9934   94.1348    0.5324 C.ar    1  UNL1        0.1378
      2 N          61.9006   93.9186    1.5369 N.ar    1  UNL1       -0.1770
      3 C          60.4767   93.7960    1.0814 C.ar    1  UNL1        0.3551
      4 O          59.3839   93.5797    2.0860 O.2     1  UNL1       -0.2440
      5 N          60.1456   93.8896   -0.3786 N.ar    1  UNL1       -0.2588
      6 C          61.2384   94.1058   -1.3832 C.ar    1  UNL1        0.0717
      7 C          60.9072   94.1995   -2.8431 C.ar    1  UNL1        0.0291
      8 C          62.0000   94.4157   -3.8476 C.ar    1  UNL1        0.0591
      9 CL         61.6689   94.5093   -5.3077 Cl      1  UNL1       -0.0822
     10 C          63.4239   94.5383   -3.3921 C.ar    1  UNL1        0.0116
     11 C          63.7550   94.4447   -1.9322 C.ar    1  UNL1        0.0051
     12 C          62.6623   94.2284   -0.9277 C.ar    1  UNL1        0.0480
     13 C          58.7217   93.7670   -0.8340 C.ar    1  UNL1        0.0683
     14 C          58.1673   92.4248   -1.2096 C.ar    1  UNL1        0.0177
     15 C          56.7434   92.3022   -1.6651 C.ar    1  UNL1        0.0015
     16 C          55.8738   93.5218   -1.7449 C.ar    1  UNL1        0.0001
     17 C          56.4282   94.8641   -1.3693 C.ar    1  UNL1        0.0015
     18 C          57.8521   94.9867   -0.9139 C.ar    1  UNL1        0.0177
     19 C          65.3573   93.0991    0.8308 C.3     1  UNL1        0.1136
     20 N          64.4173   94.2574    0.9878 N.pl3   1  UNL1       -0.2896
     21 C          64.9012   95.5383    1.6003 C.3     1  UNL1        0.1136
@<TRIPOS>BOND
     1    19    20    1
     2    20    21    1
     3    20     1    1
     4     1     2   ar
     5     2     3   ar
     6     3     4    2
     7     3     5   ar
     8     5    13    1
     9    13    14   ar
    10    14    15   ar
    11    15    16   ar
    12    16    17   ar
    13    17    18   ar
    14     5     6   ar
    15     6     7   ar
    16     7     8   ar
    17     8     9    1
    18     8    10   ar
    19    10    11   ar
    20    11    12   ar
    21    12     1   ar
    22    18    13   ar
    23    12     6   ar
