@<TRIPOS>MOLECULE
*****
 36 40 0 0 0
SMALL
GASTEIGER

@<TRIPOS>ATOM
      1 N          62.4725   87.5590   11.8027 N.3     1  UNL1       -0.1505
      2 C          65.5978   91.9895   14.3144 C.ar    1  UNL1       -0.0035
      3 C          64.8209   90.7763   13.8966 C.ar    1  UNL1        0.0335
      4 N          64.4763   90.9241   12.4442 N.ar    1  UNL1       -0.3295
      5 C          65.0402   92.2286   11.9644 C.ar    1  UNL1        0.0594
      6 C          65.0121   92.9019   10.6243 C.ar    1  UNL1        0.0172
      7 C          65.6772   94.2337   10.4401 C.ar    1  UNL1        0.0015
      8 C          66.3703   94.8922   11.5959 C.ar    1  UNL1        0.0001
      9 C          66.3984   94.2189   12.9360 C.ar    1  UNL1        0.0012
     10 C          65.7333   92.8871   13.1202 C.ar    1  UNL1        0.0133
     11 C          63.6935   89.8517   11.7463 C.3     1  UNL1        0.1233
     12 C          63.2553   88.6315   12.5007 C.3     1  UNL1        0.1028
     13 C          63.5999   88.4837   13.9531 C.3     1  UNL1        0.0259
     14 C          64.3827   89.5561   14.6510 C.3     1  UNL1        0.0450
     15 C          66.1433   92.2581   15.6856 C.3     1  UNL1        0.0691
     16 O          68.6551   91.6066   15.8148 O.co2   1  UNL1       -0.5488
     17 C          67.5803   92.6523   15.8571 C.2     1  UNL1        0.0548
     18 O          67.9428   94.0920   16.0711 O.co2   1  UNL1       -0.5488
     19 S          62.5291   86.1450   12.3000 S.O2    1  UNL1        0.0636
     20 O          63.9655   86.3384   12.6865 O.2     1  UNL1       -0.1528
     21 O          61.0926   85.9517   11.9136 O.2     1  UNL1       -0.1528
     22 C          62.5856   84.7310   12.7973 C.ar    1  UNL1        0.1224
     23 C          62.6142   84.4550   14.2714 C.ar    1  UNL1        0.0222
     24 C          62.6707   83.0409   14.7687 C.ar    1  UNL1        0.0310
     25 C          62.6985   81.9029   13.7919 C.ar    1  UNL1        0.1402
     26 F          62.7550   80.4888   14.2891 F       1  UNL1       -0.2042
     27 C          62.6699   82.1790   12.3177 C.ar    1  UNL1        0.0310
     28 C          62.6134   83.5930   11.8205 C.ar    1  UNL1        0.0222
     29 C          61.6332   87.9007   10.6074 C.3     1  UNL1        0.1221
     30 C          61.5910   86.9717    9.4303 C.ar    1  UNL1       -0.0043
     31 C          60.3182   86.8006    8.6552 C.ar    1  UNL1       -0.0006
     32 C          60.2760   85.8717    7.4783 C.ar    1  UNL1        0.0294
     33 C          61.5065   85.1139    7.0764 C.ar    1  UNL1        0.1401
     34 F          61.4643   84.1849    5.8995 F       1  UNL1       -0.2042
     35 C          62.7793   85.2850    7.8516 C.ar    1  UNL1        0.0294
     36 C          62.8215   86.2139    9.0285 C.ar    1  UNL1       -0.0006
@<TRIPOS>UNITY_ATOM_ATTR
16 1
charge -1
@<TRIPOS>BOND
     1    16    17   ar
     2    17    18   ar
     3    17    15    1
     4    15     2    1
     5     2     3   ar
     6     3     4   ar
     7     4     5   ar
     8     5     6   ar
     9     6     7   ar
    10     7     8   ar
    11     8     9   ar
    12     9    10   ar
    13     4    11    1
    14    11    12    1
    15    12     1    1
    16     1    29    1
    17    29    30    1
    18    30    31   ar
    19    31    32   ar
    20    32    33   ar
    21    33    34    1
    22    33    35   ar
    23    35    36   ar
    24     1    19    1
    25    19    20    2
    26    19    21    2
    27    19    22    1
    28    22    23   ar
    29    23    24   ar
    30    24    25   ar
    31    25    26    1
    32    25    27   ar
    33    27    28   ar
    34    12    13    1
    35    13    14    1
    36    10     2   ar
    37    36    30   ar
    38    28    22   ar
    39    14     3    1
    40    10     5   ar
@<TRIPOS>MOLECULE
*****
 36 40 0 0 0
SMALL
GASTEIGER

@<TRIPOS>ATOM
      1 N          61.7875   87.9326   11.4975 N.3     1  UNL1       -0.1505
      2 C          65.3399   92.7357   11.6214 C.ar    1  UNL1       -0.0035
      3 C          64.4208   91.5792   11.3615 C.ar    1  UNL1        0.0335
      4 N          64.2341   90.8366   12.6513 N.ar    1  UNL1       -0.3295
      5 C          65.0378   91.5342   13.7084 C.ar    1  UNL1        0.0594
      6 C          65.2357   91.2522   15.1683 C.ar    1  UNL1        0.0172
      7 C          66.1169   92.1441   15.9917 C.ar    1  UNL1        0.0015
      8 C          66.8004   93.3178   15.3551 C.ar    1  UNL1        0.0001
      9 C          66.6025   93.5998   13.8952 C.ar    1  UNL1        0.0012
     10 C          65.7213   92.7079   13.0719 C.ar    1  UNL1        0.0133
     11 C          63.3564   89.6211   12.6966 C.3     1  UNL1        0.1233
     12 C          62.6653   89.1482   11.4521 C.3     1  UNL1        0.1028
     13 C          62.8520   89.8908   10.1623 C.3     1  UNL1        0.0259
     14 C          63.7298   91.1063   10.1170 C.3     1  UNL1        0.0450
     15 C          65.7974   93.7433   10.6087 C.3     1  UNL1        0.0691
     16 O          68.1268   92.6021   10.4616 O.co2   1  UNL1       -0.5488
     17 C          67.1138   93.5627    9.9128 C.2     1  UNL1        0.0548
     18 O          67.4174   94.3426    8.6679 O.co2   1  UNL1       -0.5488
     19 S          62.3582   86.6106   11.9177 S.O2    1  UNL1        0.0636
     20 O          63.4104   87.3193   12.7182 O.2     1  UNL1       -0.1528
     21 O          61.3060   85.9019   11.1172 O.2     1  UNL1       -0.1528
     22 C          62.9289   85.2887   12.3380 C.ar    1  UNL1        0.1224
     23 C          62.7311   84.0779   11.4749 C.ar    1  UNL1        0.0222
     24 C          63.3018   82.7559   11.8952 C.ar    1  UNL1        0.0310
     25 C          64.0702   82.6446   13.1786 C.ar    1  UNL1        0.1402
     26 F          64.6409   81.3226   13.5989 F       1  UNL1       -0.2042
     27 C          64.2680   83.8554   14.0417 C.ar    1  UNL1        0.0310
     28 C          63.6973   85.1774   13.6214 C.ar    1  UNL1        0.0222
     29 C          60.3390   88.0392   11.1225 C.3     1  UNL1        0.1221
     30 C          59.9520   88.3650    9.7103 C.ar    1  UNL1       -0.0043
     31 C          59.9834   89.7867    9.2331 C.ar    1  UNL1       -0.0006
     32 C          59.5964   90.1126    7.8210 C.ar    1  UNL1        0.0294
     33 C          59.1779   89.0167    6.8861 C.ar    1  UNL1        0.1401
     34 F          58.7909   89.3425    5.4741 F       1  UNL1       -0.2042
     35 C          59.1465   87.5950    7.3634 C.ar    1  UNL1        0.0294
     36 C          59.5335   87.2691    8.7755 C.ar    1  UNL1       -0.0006
@<TRIPOS>UNITY_ATOM_ATTR
16 1
charge -1
@<TRIPOS>BOND
     1    16    17   ar
     2    17    18   ar
     3    17    15    1
     4    15     2    1
     5     2     3   ar
     6     3     4   ar
     7     4     5   ar
     8     5     6   ar
     9     6     7   ar
    10     7     8   ar
    11     8     9   ar
    12     9    10   ar
    13     4    11    1
    14    11    12    1
    15    12     1    1
    16     1    29    1
    17    29    30    1
    18    30    31   ar
    19    31    32   ar
    20    32    33   ar
    21    33    34    1
    22    33    35   ar
    23    35    36   ar
    24     1    19    1
    25    19    20    2
    26    19    21    2
    27    19    22    1
    28    22    23   ar
    29    23    24   ar
    30    24    25   ar
    31    25    26    1
    32    25    27   ar
    33    27    28   ar
    34    12    13    1
    35    13    14    1
    36    10     2   ar
    37    36    30   ar
    38    28    22   ar
    39    14     3    1
    40    10     5   ar
@<TRIPOS>MOLECULE
*****
 36 40 0 0 0
SMALL
GASTEIGER

@<TRIPOS>ATOM
      1 N          62.2250   88.0784   11.5168 N.3     1  UNL1       -0.1505
      2 C          65.3425   93.1742   11.6570 C.ar    1  UNL1       -0.0035
      3 C          64.5002   91.9592   11.4031 C.ar    1  UNL1        0.0335
      4 N          64.5396   91.1026   12.6338 N.ar    1  UNL1       -0.3295
      5 C          65.4062   91.7880   13.6482 C.ar    1  UNL1        0.0594
      6 C          65.8076   91.4118   15.0436 C.ar    1  UNL1        0.0172
      7 C          66.7052   92.3158   15.8354 C.ar    1  UNL1        0.0015
      8 C          67.2015   93.5962   15.2317 C.ar    1  UNL1        0.0001
      9 C          66.8001   93.9724   13.8362 C.ar    1  UNL1        0.0012
     10 C          65.9025   93.0684   13.0445 C.ar    1  UNL1        0.0133
     11 C          63.7812   89.8090   12.6717 C.3     1  UNL1        0.1233
     12 C          62.9834   89.3721   11.4789 C.3     1  UNL1        0.1028
     13 C          62.9440   90.2287   10.2482 C.3     1  UNL1        0.0259
     14 C          63.7024   91.5223   10.2103 C.3     1  UNL1        0.0450
     15 C          65.5827   94.2977   10.6926 C.3     1  UNL1        0.0691
     16 O          67.2476   95.7031    9.2772 O.co2   1  UNL1       -0.5488
     17 C          66.9250   94.4533   10.0416 C.2     1  UNL1        0.0548
     18 O          67.9450   93.3593   10.1550 O.co2   1  UNL1       -0.5488
     19 S          62.6946   86.9593   12.3983 S.O2    1  UNL1        0.0636
     20 O          63.8375   87.8093   12.8687 O.2     1  UNL1       -0.1528
     21 O          61.5516   86.1092   11.9279 O.2     1  UNL1       -0.1528
     22 C          63.1641   85.8402   13.2797 C.ar    1  UNL1        0.1224
     23 C          64.0975   86.1239   14.4191 C.ar    1  UNL1        0.0222
     24 C          64.5670   85.0047   15.3005 C.ar    1  UNL1        0.0310
     25 C          64.1031   83.6017   15.0427 C.ar    1  UNL1        0.1402
     26 F          64.5726   82.4825   15.9241 F       1  UNL1       -0.2042
     27 C          63.1696   83.3180   13.9033 C.ar    1  UNL1        0.0310
     28 C          62.7001   84.4372   13.0218 C.ar    1  UNL1        0.0222
     29 C          60.9970   87.9040   10.6732 C.3     1  UNL1        0.1221
     30 C          61.0381   87.0188    9.4629 C.ar    1  UNL1       -0.0043
     31 C          62.3178   86.3401    9.0733 C.ar    1  UNL1       -0.0006
     32 C          62.3590   85.4549    7.8630 C.ar    1  UNL1        0.0294
     33 C          61.1205   85.2485    7.0424 C.ar    1  UNL1        0.1401
     34 F          61.1617   84.3633    5.8321 F       1  UNL1       -0.2042
     35 C          59.8408   85.9272    7.4319 C.ar    1  UNL1        0.0294
     36 C          59.7997   86.8124    8.6422 C.ar    1  UNL1       -0.0006
@<TRIPOS>UNITY_ATOM_ATTR
16 1
charge -1
@<TRIPOS>BOND
     1    16    17   ar
     2    17    18   ar
     3    17    15    1
     4    15     2    1
     5     2     3   ar
     6     3     4   ar
     7     4     5   ar
     8     5     6   ar
     9     6     7   ar
    10     7     8   ar
    11     8     9   ar
    12     9    10   ar
    13     4    11    1
    14    11    12    1
    15    12     1    1
    16     1    29    1
    17    29    30    1
    18    30    31   ar
    19    31    32   ar
    20    32    33   ar
    21    33    34    1
    22    33    35   ar
    23    35    36   ar
    24     1    19    1
    25    19    20    2
    26    19    21    2
    27    19    22    1
    28    22    23   ar
    29    23    24   ar
    30    24    25   ar
    31    25    26    1
    32    25    27   ar
    33    27    28   ar
    34    12    13    1
    35    13    14    1
    36    10     2   ar
    37    36    30   ar
    38    28    22   ar
    39    14     3    1
    40    10     5   ar
@<TRIPOS>MOLECULE
*****
 36 40 0 0 0
SMALL
GASTEIGER

@<TRIPOS>ATOM
      1 N          61.9347   87.6398   11.7413 N.3     1  UNL1       -0.1505
      2 C          65.7938   91.6337   13.9461 C.ar    1  UNL1       -0.0035
      3 C          64.8625   90.5123   13.5926 C.ar    1  UNL1        0.0335
      4 N          64.2779   90.8035   12.2422 N.ar    1  UNL1       -0.3295
      5 C          64.8481   92.1048   11.7611 C.ar    1  UNL1        0.0594
      6 C          64.6351   92.8888   10.5002 C.ar    1  UNL1        0.0172
      7 C          65.3591   94.1860   10.2924 C.ar    1  UNL1        0.0015
      8 C          66.2960   94.6991   11.3454 C.ar    1  UNL1        0.0001
      9 C          66.5089   93.9151   12.6063 C.ar    1  UNL1        0.0012
     10 C          65.7849   92.6179   12.8142 C.ar    1  UNL1        0.0133
     11 C          63.3020   89.8460   11.6252 C.3     1  UNL1        0.1233
     12 C          62.9107   88.5973   12.3585 C.3     1  UNL1        0.1028
     13 C          63.4952   88.3061   13.7088 C.3     1  UNL1        0.0259
     14 C          64.4711   89.2636   14.3259 C.3     1  UNL1        0.0450
     15 C          66.5937   91.7504   15.2097 C.3     1  UNL1        0.0691
     16 O          68.9813   92.3400   14.3720 O.co2   1  UNL1       -0.5488
     17 C          67.8035   92.6361   15.2524 C.2     1  UNL1        0.0548
     18 O          67.8355   93.8180   16.1755 O.co2   1  UNL1       -0.5488
     19 S          62.3525   86.2300   11.4450 S.O2    1  UNL1        0.0636
     20 O          62.7487   86.6390   10.0573 O.2     1  UNL1       -0.1528
     21 O          61.9563   85.8210   12.8328 O.2     1  UNL1       -0.1528
     22 C          62.7703   84.8202   11.1488 C.ar    1  UNL1        0.1224
     23 C          62.4795   83.7287   12.1358 C.ar    1  UNL1        0.0222
     24 C          62.8973   82.3188   11.8395 C.ar    1  UNL1        0.0310
     25 C          63.6059   82.0004   10.5563 C.ar    1  UNL1        0.1402
     26 F          64.0237   80.5906   10.2600 F       1  UNL1       -0.2042
     27 C          63.8966   83.0920    9.5693 C.ar    1  UNL1        0.0310
     28 C          63.4788   84.5018    9.8656 C.ar    1  UNL1        0.0222
     29 C          60.5410   88.0923   11.4205 C.3     1  UNL1        0.1221
     30 C          60.1484   88.3604    9.9978 C.ar    1  UNL1       -0.0043
     31 C          60.3781   89.7165    9.3992 C.ar    1  UNL1       -0.0006
     32 C          59.9856   89.9847    7.9766 C.ar    1  UNL1        0.0294
     33 C          59.3633   88.8967    7.1524 C.ar    1  UNL1        0.1401
     34 F          58.9708   89.1649    5.7298 F       1  UNL1       -0.2042
     35 C          59.1337   87.5406    7.7510 C.ar    1  UNL1        0.0294
     36 C          59.5262   87.2725    9.1736 C.ar    1  UNL1       -0.0006
@<TRIPOS>UNITY_ATOM_ATTR
16 1
charge -1
@<TRIPOS>BOND
     1    16    17   ar
     2    17    18   ar
     3    17    15    1
     4    15     2    1
     5     2     3   ar
     6     3     4   ar
     7     4     5   ar
     8     5     6   ar
     9     6     7   ar
    10     7     8   ar
    11     8     9   ar
    12     9    10   ar
    13     4    11    1
    14    11    12    1
    15    12     1    1
    16     1    29    1
    17    29    30    1
    18    30    31   ar
    19    31    32   ar
    20    32    33   ar
    21    33    34    1
    22    33    35   ar
    23    35    36   ar
    24     1    19    1
    25    19    20    2
    26    19    21    2
    27    19    22    1
    28    22    23   ar
    29    23    24   ar
    30    24    25   ar
    31    25    26    1
    32    25    27   ar
    33    27    28   ar
    34    12    13    1
    35    13    14    1
    36    10     2   ar
    37    36    30   ar
    38    28    22   ar
    39    14     3    1
    40    10     5   ar
@<TRIPOS>MOLECULE
*****
 36 40 0 0 0
SMALL
GASTEIGER

@<TRIPOS>ATOM
      1 N          63.7328   86.0503   13.5327 N.3     1  UNL1       -0.1505
      2 C          60.9003   85.9196    8.2729 C.ar    1  UNL1       -0.0035
      3 C          61.6650   85.7272    9.5490 C.ar    1  UNL1        0.0335
      4 N          61.6330   87.0207   10.3078 N.ar    1  UNL1       -0.3295
      5 C          60.8487   88.0124    9.5008 C.ar    1  UNL1        0.0594
      6 C          60.4883   89.4472    9.7486 C.ar    1  UNL1        0.0172
      7 C          59.6751   90.2014    8.7388 C.ar    1  UNL1        0.0015
      8 C          59.2223   89.5209    7.4811 C.ar    1  UNL1        0.0001
      9 C          59.5826   88.0861    7.2333 C.ar    1  UNL1        0.0012
     10 C          60.3958   87.3319    8.2431 C.ar    1  UNL1        0.0133
     11 C          62.3223   87.1284   11.6357 C.3     1  UNL1        0.1233
     12 C          63.0435   85.9426   12.2047 C.3     1  UNL1        0.1028
     13 C          63.0754   84.6491   11.4458 C.3     1  UNL1        0.0259
     14 C          62.3862   84.5414   10.1180 C.3     1  UNL1        0.0450
     15 C          60.6790   84.8818    7.2127 C.3     1  UNL1        0.0691
     16 O          63.2102   84.6508    6.6745 O.co2   1  UNL1       -0.5488
     17 C          61.7764   84.5526    6.2446 C.2     1  UNL1        0.0548
     18 O          61.4403   84.1253    4.8466 O.co2   1  UNL1       -0.5488
     19 S          63.8440   87.3819   14.2142 S.O2    1  UNL1        0.0636
     20 O          63.8313   88.0661   12.8794 O.2     1  UNL1       -0.1528
     21 O          63.8566   86.6976   15.5490 O.2     1  UNL1       -0.1528
     22 C          63.9552   88.7134   14.8957 C.ar    1  UNL1        0.1224
     23 C          63.2665   88.9441   16.2081 C.ar    1  UNL1        0.0222
     24 C          63.3777   90.2757   16.8896 C.ar    1  UNL1        0.0310
     25 C          64.1776   91.3767   16.2588 C.ar    1  UNL1        0.1402
     26 F          64.2888   92.7083   16.9402 F       1  UNL1       -0.2042
     27 C          64.8663   91.1460   14.9462 C.ar    1  UNL1        0.0310
     28 C          64.7550   89.8144   14.2647 C.ar    1  UNL1        0.0222
     29 C          64.3108   84.8263   14.1790 C.3     1  UNL1        0.1221
     30 C          63.6445   83.4951   13.9943 C.ar    1  UNL1       -0.0043
     31 C          64.3093   82.4313   13.1717 C.ar    1  UNL1       -0.0006
     32 C          63.6431   81.1002   12.9870 C.ar    1  UNL1        0.0294
     33 C          62.3121   80.8328   13.6249 C.ar    1  UNL1        0.1401
     34 F          61.6458   79.5016   13.4402 F       1  UNL1       -0.2042
     35 C          61.6473   81.8965   14.4474 C.ar    1  UNL1        0.0294
     36 C          62.3135   83.2276   14.6322 C.ar    1  UNL1       -0.0006
@<TRIPOS>UNITY_ATOM_ATTR
16 1
charge -1
@<TRIPOS>BOND
     1    16    17   ar
     2    17    18   ar
     3    17    15    1
     4    15     2    1
     5     2     3   ar
     6     3     4   ar
     7     4     5   ar
     8     5     6   ar
     9     6     7   ar
    10     7     8   ar
    11     8     9   ar
    12     9    10   ar
    13     4    11    1
    14    11    12    1
    15    12     1    1
    16     1    29    1
    17    29    30    1
    18    30    31   ar
    19    31    32   ar
    20    32    33   ar
    21    33    34    1
    22    33    35   ar
    23    35    36   ar
    24     1    19    1
    25    19    20    2
    26    19    21    2
    27    19    22    1
    28    22    23   ar
    29    23    24   ar
    30    24    25   ar
    31    25    26    1
    32    25    27   ar
    33    27    28   ar
    34    12    13    1
    35    13    14    1
    36    10     2   ar
    37    36    30   ar
    38    28    22   ar
    39    14     3    1
    40    10     5   ar
@<TRIPOS>MOLECULE
*****
 36 40 0 0 0
SMALL
GASTEIGER

@<TRIPOS>ATOM
      1 N          63.7266   84.4875   13.0843 N.3     1  UNL1       -0.1505
      2 C          61.5471   89.2332   10.1802 C.ar    1  UNL1       -0.0035
      3 C          62.2059   88.1992   11.0444 C.ar    1  UNL1        0.0335
      4 N          61.7806   86.8467   10.5550 N.ar    1  UNL1       -0.3295
      5 C          60.8589   87.0447    9.3882 C.ar    1  UNL1        0.0594
      6 C          60.1323   86.0725    8.5068 C.ar    1  UNL1        0.0172
      7 C          59.2615   86.5752    7.3938 C.ar    1  UNL1        0.0015
      8 C          59.1173   88.0502    7.1621 C.ar    1  UNL1        0.0001
      9 C          59.8438   89.0224    8.0435 C.ar    1  UNL1        0.0012
     10 C          60.7146   88.5196    9.1566 C.ar    1  UNL1        0.0133
     11 C          62.2874   85.6095   11.2349 C.3     1  UNL1        0.1233
     12 C          63.2197   85.7248   12.4044 C.3     1  UNL1        0.1028
     13 C          63.6451   87.0774   12.8938 C.3     1  UNL1        0.0259
     14 C          63.1382   88.3146   12.2139 C.3     1  UNL1        0.0450
     15 C          61.6949   90.7197   10.3157 C.3     1  UNL1        0.0691
     16 O          64.0186   91.8346    9.9875 O.co2   1  UNL1       -0.5488
     17 C          62.9513   91.2988   10.8953 C.2     1  UNL1        0.0548
     18 O          63.1406   91.3422   12.3827 O.co2   1  UNL1       -0.5488
     19 S          63.4663   83.1395   12.4801 S.O2    1  UNL1        0.0636
     20 O          64.5851   83.3602   11.5057 O.2     1  UNL1       -0.1528
     21 O          62.3474   82.9189   13.4546 O.2     1  UNL1       -0.1528
     22 C          63.2059   81.7916   11.8760 C.ar    1  UNL1        0.1224
     23 C          62.7669   80.6516   12.7465 C.ar    1  UNL1        0.0222
     24 C          62.5065   79.3036   12.1422 C.ar    1  UNL1        0.0310
     25 C          62.6851   79.0955   10.6675 C.ar    1  UNL1        0.1402
     26 F          62.4247   77.7475   10.0633 F       1  UNL1       -0.2042
     27 C          63.1241   80.2355    9.7970 C.ar    1  UNL1        0.0310
     28 C          63.3845   81.5835   10.4012 C.ar    1  UNL1        0.0222
     29 C          64.4938   84.5984   14.3685 C.3     1  UNL1        0.1221
     30 C          63.9042   85.3379   15.5329 C.ar    1  UNL1       -0.0043
     31 C          64.1998   86.7961   15.7228 C.ar    1  UNL1       -0.0006
     32 C          63.6102   87.5355   16.8871 C.ar    1  UNL1        0.0294
     33 C          62.7249   86.8167   17.8615 C.ar    1  UNL1        0.1401
     34 F          62.1353   87.5561   19.0258 F       1  UNL1       -0.2042
     35 C          62.4293   85.3584   17.6716 C.ar    1  UNL1        0.0294
     36 C          63.0189   84.6190   16.5073 C.ar    1  UNL1       -0.0006
@<TRIPOS>UNITY_ATOM_ATTR
16 1
charge -1
@<TRIPOS>BOND
     1    16    17   ar
     2    17    18   ar
     3    17    15    1
     4    15     2    1
     5     2     3   ar
     6     3     4   ar
     7     4     5   ar
     8     5     6   ar
     9     6     7   ar
    10     7     8   ar
    11     8     9   ar
    12     9    10   ar
    13     4    11    1
    14    11    12    1
    15    12     1    1
    16     1    29    1
    17    29    30    1
    18    30    31   ar
    19    31    32   ar
    20    32    33   ar
    21    33    34    1
    22    33    35   ar
    23    35    36   ar
    24     1    19    1
    25    19    20    2
    26    19    21    2
    27    19    22    1
    28    22    23   ar
    29    23    24   ar
    30    24    25   ar
    31    25    26    1
    32    25    27   ar
    33    27    28   ar
    34    12    13    1
    35    13    14    1
    36    10     2   ar
    37    36    30   ar
    38    28    22   ar
    39    14     3    1
    40    10     5   ar
