@<TRIPOS>MOLECULE
*****
 35 37 0 0 0
SMALL
GASTEIGER

@<TRIPOS>ATOM
      1 C          59.3913   89.0086    7.4075 C.ar    1  UNL1       -0.0024
      2 C          59.0519   87.5478    7.3779 C.ar    1  UNL1       -0.0026
      3 C          59.4852   86.6542    8.5021 C.ar    1  UNL1       -0.0001
      4 C          60.2579   87.2214    9.6559 C.ar    1  UNL1        0.0045
      5 C          60.5973   88.6822    9.6855 C.ar    1  UNL1        0.0534
      6 C          60.1640   89.5758    8.5613 C.ar    1  UNL1        0.0019
      7 C          61.3699   89.2494   10.8393 C.2     1  UNL1        0.2495
      8 O          60.6957   89.4592   12.1627 O.2     1  UNL1       -0.2698
      9 N          62.8169   89.6069   10.6696 N.am    1  UNL1       -0.2804
     10 H          63.2594   89.4692    9.8010 H       1  UNL1        0.1552
     11 C          63.5895   90.1741   11.8234 C.ar    1  UNL1        0.0505
     12 C          63.7786   89.3627   13.0707 C.ar    1  UNL1        0.0144
     13 C          64.5513   89.9299   14.2245 C.ar    1  UNL1       -0.0016
     14 C          65.1349   91.3085   14.1310 C.ar    1  UNL1       -0.0061
     15 C          64.9458   92.1200   12.8837 C.ar    1  UNL1       -0.0016
     16 C          64.1731   91.5528   11.7299 C.ar    1  UNL1        0.0144
     17 C          65.9075   91.8757   15.2848 C.3     1  UNL1        0.0992
     18 N          67.3093   92.3683   15.0790 N.3     1  UNL1       -0.2665
     19 C          68.1223   91.8572   13.9267 C.3     1  UNL1        0.0899
     20 C          67.8980   93.3721   16.0254 C.3     1  UNL1        0.0899
     21 C          58.9581   89.9022    6.2833 C.3     1  UNL1        0.1166
     22 C          59.6183   91.6584    4.4861 C.2     1  UNL1        0.2462
     23 O          58.2338   92.2332    4.5393 O.2     1  UNL1       -0.2701
     24 N          59.9804   90.4929    5.3582 N.am    1  UNL1       -0.2969
     25 H          60.8891   90.1157    5.3233 H       1  UNL1        0.1501
     26 C          62.6853   93.4306    1.7107 C.ar    1  UNL1        0.1724
     27 C          63.0564   92.2857    2.6059 C.ar    1  UNL1        0.0402
     28 C          62.0341   91.6949    3.5310 C.ar    1  UNL1        0.0078
     29 C          60.6406   92.2491    3.5610 C.ar    1  UNL1        0.0566
     30 C          60.2694   93.3940    2.6658 C.ar    1  UNL1        0.0446
     31 C          61.2917   93.9848    1.7407 C.ar    1  UNL1        0.1725
     32 C          65.0633   93.3909    0.6652 C.3     1  UNL1        0.2526
     33 O          63.7076   94.0213    0.7856 O.3     1  UNL1       -0.4684
     34 O          60.9205   95.1297    0.8455 O.3     1  UNL1       -0.4684
     35 C          59.4898   95.3346    0.4441 C.3     1  UNL1        0.2526
@<TRIPOS>BOND
     1    32    33    1
     2    33    26    1
     3    26    27   ar
     4    27    28   ar
     5    28    29   ar
     6    29    22    1
     7    22    23    2
     8    22    24   am
     9    24    21    1
    10    21     1    1
    11     1     2   ar
    12     2     3   ar
    13     3     4   ar
    14     4     5   ar
    15     5     7    1
    16     7     8    2
    17     7     9   am
    18     9    11    1
    19    11    12   ar
    20    12    13   ar
    21    13    14   ar
    22    14    17    1
    23    17    18    1
    24    18    19    1
    25    18    20    1
    26    14    15   ar
    27    15    16   ar
    28     5     6   ar
    29    29    30   ar
    30    30    31   ar
    31    31    34    1
    32    34    35    1
    33    31    26   ar
    34     6     1   ar
    35    16    11   ar
    36    24    25    1
    37     9    10    1
@<TRIPOS>MOLECULE
*****
 35 37 0 0 0
SMALL
GASTEIGER

@<TRIPOS>ATOM
      1 C          64.3911   83.6655   12.7699 C.ar    1  UNL1       -0.0024
      2 C          64.6144   82.2469   12.3367 C.ar    1  UNL1       -0.0026
      3 C          64.1387   81.7904   10.9893 C.ar    1  UNL1       -0.0001
      4 C          63.4396   82.7525   10.0752 C.ar    1  UNL1        0.0045
      5 C          63.2164   84.1712   10.5084 C.ar    1  UNL1        0.0534
      6 C          63.6921   84.6276   11.8557 C.ar    1  UNL1        0.0019
      7 C          62.5173   85.1333    9.5943 C.2     1  UNL1        0.2495
      8 O          63.0010   85.3162    8.1863 O.2     1  UNL1       -0.2698
      9 N          61.3346   85.9126   10.0883 N.am    1  UNL1       -0.2804
     10 H          61.0171   85.7925   11.0124 H       1  UNL1        0.1552
     11 C          60.6355   86.8747    9.1742 C.ar    1  UNL1        0.0505
     12 C          59.8056   86.3596    8.0359 C.ar    1  UNL1        0.0144
     13 C          59.1065   87.3217    7.1218 C.ar    1  UNL1       -0.0016
     14 C          59.2374   88.7990    7.3459 C.ar    1  UNL1       -0.0061
     15 C          60.0675   89.3143    8.4843 C.ar    1  UNL1       -0.0016
     16 C          60.7665   88.3522    9.3984 C.ar    1  UNL1        0.0144
     17 C          58.5384   89.7612    6.4318 C.3     1  UNL1        0.0992
     18 N          59.3382   90.6804    5.5570 N.3     1  UNL1       -0.2665
     19 C          58.6773   91.8582    4.9044 C.3     1  UNL1        0.0899
     20 C          60.7989   90.4218    5.3348 C.3     1  UNL1        0.0899
     21 C          64.8669   84.1220   14.1172 C.3     1  UNL1        0.1166
     22 C          63.7064   86.2091   15.1404 C.2     1  UNL1        0.2462
     23 O          62.5138   85.3717   15.4958 O.2     1  UNL1       -0.2701
     24 N          64.8829   85.5843   14.4511 N.am    1  UNL1       -0.2969
     25 H          65.6657   86.1339   14.2178 H       1  UNL1        0.1501
     26 C          63.7544   90.5960   16.1420 C.ar    1  UNL1        0.1724
     27 C          63.1476   89.6145   17.1003 C.ar    1  UNL1        0.0402
     28 C          63.1316   88.1522   16.7664 C.ar    1  UNL1        0.0078
     29 C          63.7224   87.6714   15.4742 C.ar    1  UNL1        0.0566
     30 C          64.3292   88.6529   14.5159 C.ar    1  UNL1        0.0446
     31 C          64.3452   90.1152   14.8498 C.ar    1  UNL1        0.1725
     32 C          65.0620   92.7318   16.8337 C.3     1  UNL1        0.2526
     33 O          63.7704   92.0583   16.4758 O.3     1  UNL1       -0.4684
     34 O          64.9521   91.0967   13.8914 O.3     1  UNL1       -0.4684
     35 C          64.2693   91.3936   12.5893 C.3     1  UNL1        0.2526
@<TRIPOS>BOND
     1    32    33    1
     2    33    26    1
     3    26    27   ar
     4    27    28   ar
     5    28    29   ar
     6    29    22    1
     7    22    23    2
     8    22    24   am
     9    24    21    1
    10    21     1    1
    11     1     2   ar
    12     2     3   ar
    13     3     4   ar
    14     4     5   ar
    15     5     7    1
    16     7     8    2
    17     7     9   am
    18     9    11    1
    19    11    12   ar
    20    12    13   ar
    21    13    14   ar
    22    14    17    1
    23    17    18    1
    24    18    19    1
    25    18    20    1
    26    14    15   ar
    27    15    16   ar
    28     5     6   ar
    29    29    30   ar
    30    30    31   ar
    31    31    34    1
    32    34    35    1
    33    31    26   ar
    34     6     1   ar
    35    16    11   ar
    36    24    25    1
    37     9    10    1
@<TRIPOS>MOLECULE
*****
 35 37 0 0 0
SMALL
GASTEIGER

@<TRIPOS>ATOM
      1 C          59.5264   88.8723    7.4585 C.ar    1  UNL1       -0.0024
      2 C          59.2195   87.4214    7.2337 C.ar    1  UNL1       -0.0026
      3 C          59.8316   86.3789    8.1219 C.ar    1  UNL1       -0.0001
      4 C          60.7505   86.7875    9.2349 C.ar    1  UNL1        0.0045
      5 C          61.0574   88.2385    9.4597 C.ar    1  UNL1        0.0534
      6 C          60.4453   89.2809    8.5715 C.ar    1  UNL1        0.0019
      7 C          61.9763   88.6471   10.5726 C.2     1  UNL1        0.2495
      8 O          62.3762   87.6498   11.6193 O.2     1  UNL1       -0.2698
      9 N          62.4952   90.0529   10.6389 N.am    1  UNL1       -0.2804
     10 H          62.2327   90.7075    9.9519 H       1  UNL1        0.1552
     11 C          63.4141   90.4615   11.7519 C.ar    1  UNL1        0.0505
     12 C          64.2358   91.7100   11.6259 C.ar    1  UNL1        0.0144
     13 C          65.1547   92.1186   12.7389 C.ar    1  UNL1       -0.0016
     14 C          65.2519   91.2786   13.9778 C.ar    1  UNL1       -0.0061
     15 C          64.4302   90.0300   14.1038 C.ar    1  UNL1       -0.0016
     16 C          63.5113   89.6214   12.9908 C.ar    1  UNL1        0.0144
     17 C          66.1708   91.6872   15.0908 C.3     1  UNL1        0.0992
     18 N          67.4936   92.3210   14.7768 N.3     1  UNL1       -0.2665
     19 C          67.9930   93.4654   15.6080 C.3     1  UNL1        0.0899
     20 C          68.3169   91.8104   13.6317 C.3     1  UNL1        0.0899
     21 C          58.9144   89.9148    6.5704 C.3     1  UNL1        0.1166
     22 C          59.1402   91.6099    4.6144 C.2     1  UNL1        0.2462
     23 O          57.7971   92.1834    4.9565 O.2     1  UNL1       -0.2701
     24 N          59.6989   90.4756    5.4214 N.am    1  UNL1       -0.2969
     25 H          60.5804   90.0991    5.1969 H       1  UNL1        0.1501
     26 C          61.4935   93.2922    1.1674 C.ar    1  UNL1        0.1724
     27 C          59.9943   93.3357    1.1443 C.ar    1  UNL1        0.0402
     28 C          59.2099   92.7750    2.2933 C.ar    1  UNL1        0.0078
     29 C          59.9246   92.1706    3.4654 C.ar    1  UNL1        0.0566
     30 C          61.4238   92.1271    3.4886 C.ar    1  UNL1        0.0446
     31 C          62.2082   92.6878    2.3396 C.ar    1  UNL1        0.1725
     32 C          62.2315   95.3232   -0.2748 C.3     1  UNL1        0.2526
     33 O          62.2779   93.8529    0.0184 O.3     1  UNL1       -0.4684
     34 O          63.7074   92.6443    2.3627 O.3     1  UNL1       -0.4684
     35 C          64.4955   93.9199    2.3229 C.3     1  UNL1        0.2526
@<TRIPOS>BOND
     1    32    33    1
     2    33    26    1
     3    26    27   ar
     4    27    28   ar
     5    28    29   ar
     6    29    22    1
     7    22    23    2
     8    22    24   am
     9    24    21    1
    10    21     1    1
    11     1     2   ar
    12     2     3   ar
    13     3     4   ar
    14     4     5   ar
    15     5     7    1
    16     7     8    2
    17     7     9   am
    18     9    11    1
    19    11    12   ar
    20    12    13   ar
    21    13    14   ar
    22    14    17    1
    23    17    18    1
    24    18    19    1
    25    18    20    1
    26    14    15   ar
    27    15    16   ar
    28     5     6   ar
    29    29    30   ar
    30    30    31   ar
    31    31    34    1
    32    34    35    1
    33    31    26   ar
    34     6     1   ar
    35    16    11   ar
    36    24    25    1
    37     9    10    1
@<TRIPOS>MOLECULE
*****
 35 37 0 0 0
SMALL
GASTEIGER

@<TRIPOS>ATOM
      1 C          59.9113   88.9304   10.0453 C.ar    1  UNL1       -0.0024
      2 C          59.8530   87.4368    9.9206 C.ar    1  UNL1       -0.0026
      3 C          59.7413   86.8009    8.5666 C.ar    1  UNL1       -0.0001
      4 C          59.6880   87.6588    7.3373 C.ar    1  UNL1        0.0045
      5 C          59.7463   89.1525    7.4620 C.ar    1  UNL1        0.0534
      6 C          59.8580   89.7883    8.8159 C.ar    1  UNL1        0.0019
      7 C          59.6930   90.0104    6.2327 C.2     1  UNL1        0.2495
      8 O          58.3772   90.2880    5.5683 O.2     1  UNL1       -0.2698
      9 N          60.9557   90.5907    5.6677 N.am    1  UNL1       -0.2804
     10 H          61.8193   90.4085    6.1038 H       1  UNL1        0.1552
     11 C          60.9024   91.4486    4.4384 C.ar    1  UNL1        0.0505
     12 C          62.0828   91.5100    3.5149 C.ar    1  UNL1        0.0144
     13 C          62.0294   92.3678    2.2856 C.ar    1  UNL1       -0.0016
     14 C          60.7958   93.1643    1.9798 C.ar    1  UNL1       -0.0061
     15 C          59.6153   93.1030    2.9033 C.ar    1  UNL1       -0.0016
     16 C          59.6686   92.2451    4.1326 C.ar    1  UNL1        0.0144
     17 C          60.7425   94.0222    0.7505 C.3     1  UNL1        0.0992
     18 N          60.6971   93.3856   -0.6069 N.3     1  UNL1       -0.2665
     19 C          61.9075   93.4197   -1.4922 C.3     1  UNL1        0.0899
     20 C          59.4412   92.7149   -1.0791 C.3     1  UNL1        0.0899
     21 C          60.0229   89.5663   11.3993 C.3     1  UNL1        0.1166
     22 C          62.5056   89.7426   12.1444 C.2     1  UNL1        0.2462
     23 O          62.5919   88.2466   12.2106 O.2     1  UNL1       -0.2701
     24 N          61.2211   90.4024   11.7387 N.am    1  UNL1       -0.2969
     25 H          61.1644   91.3843   11.6952 H       1  UNL1        0.1501
     26 C          66.1001   92.2511   13.1626 C.ar    1  UNL1        0.1724
     27 C          65.6255   91.1975   14.1190 C.ar    1  UNL1        0.0402
     28 C          64.4273   90.3614   13.7796 C.ar    1  UNL1        0.0078
     29 C          63.7038   90.5788   12.4838 C.ar    1  UNL1        0.0566
     30 C          64.1784   91.6323   11.5274 C.ar    1  UNL1        0.0446
     31 C          65.3765   92.4685   11.8668 C.ar    1  UNL1        0.1725
     32 C          67.6076   93.4081   14.9342 C.3     1  UNL1        0.2526
     33 O          67.2983   93.0873   13.5020 O.3     1  UNL1       -0.4684
     34 O          65.8512   93.5221   10.9103 O.3     1  UNL1       -0.4684
     35 C          67.0013   93.2369    9.9906 C.3     1  UNL1        0.2526
@<TRIPOS>BOND
     1    32    33    1
     2    33    26    1
     3    26    27   ar
     4    27    28   ar
     5    28    29   ar
     6    29    22    1
     7    22    23    2
     8    22    24   am
     9    24    21    1
    10    21     1    1
    11     1     2   ar
    12     2     3   ar
    13     3     4   ar
    14     4     5   ar
    15     5     7    1
    16     7     8    2
    17     7     9   am
    18     9    11    1
    19    11    12   ar
    20    12    13   ar
    21    13    14   ar
    22    14    17    1
    23    17    18    1
    24    18    19    1
    25    18    20    1
    26    14    15   ar
    27    15    16   ar
    28     5     6   ar
    29    29    30   ar
    30    30    31   ar
    31    31    34    1
    32    34    35    1
    33    31    26   ar
    34     6     1   ar
    35    16    11   ar
    36    24    25    1
    37     9    10    1
@<TRIPOS>MOLECULE
*****
 35 37 0 0 0
SMALL
GASTEIGER

@<TRIPOS>ATOM
      1 C          63.9517   85.8076   14.3064 C.ar    1  UNL1       -0.0024
      2 C          63.8807   84.3351   14.5831 C.ar    1  UNL1       -0.0026
      3 C          63.1928   83.4217   13.6122 C.ar    1  UNL1       -0.0001
      4 C          62.5758   83.9810   12.3646 C.ar    1  UNL1        0.0045
      5 C          62.6467   85.4536   12.0879 C.ar    1  UNL1        0.0534
      6 C          63.3347   86.3668   13.0587 C.ar    1  UNL1        0.0019
      7 C          62.0298   86.0128   10.8402 C.2     1  UNL1        0.2495
      8 O          62.3609   85.4130    9.5059 O.2     1  UNL1       -0.2698
      9 N          61.0815   87.1719   10.9270 N.am    1  UNL1       -0.2804
     10 H          60.8642   87.5656   11.8028 H       1  UNL1        0.1552
     11 C          60.4645   87.7311    9.6794 C.ar    1  UNL1        0.0505
     12 C          60.6337   89.1835    9.3450 C.ar    1  UNL1        0.0144
     13 C          60.0167   89.7428    8.0974 C.ar    1  UNL1       -0.0016
     14 C          59.2306   88.8496    7.1841 C.ar    1  UNL1       -0.0061
     15 C          59.0613   87.3971    7.5184 C.ar    1  UNL1       -0.0016
     16 C          59.6783   86.8379    8.7661 C.ar    1  UNL1        0.0144
     17 C          58.6136   89.4088    5.9365 C.3     1  UNL1        0.0992
     18 N          59.1257   90.6944    5.3578 N.3     1  UNL1       -0.2665
     19 C          60.5866   90.8517    5.0560 C.3     1  UNL1        0.0899
     20 C          58.1769   91.8227    5.0808 C.3     1  UNL1        0.0899
     21 C          64.6396   86.7210   15.2773 C.3     1  UNL1        0.1166
     22 C          64.3530   89.2488   14.7503 C.2     1  UNL1        0.2462
     23 O          62.9151   89.1734   15.1706 O.2     1  UNL1       -0.2701
     24 N          65.2152   88.0226   14.8036 N.am    1  UNL1       -0.2969
     25 H          66.1590   88.0721   14.5277 H       1  UNL1        0.1501
     26 C          66.0799   93.1538   13.3293 C.ar    1  UNL1        0.1724
     27 C          65.1689   92.3667   12.4345 C.ar    1  UNL1        0.0402
     28 C          64.5933   91.0650   12.9081 C.ar    1  UNL1        0.0078
     29 C          64.9286   90.5505   14.2766 C.ar    1  UNL1        0.0566
     30 C          65.8395   91.3375   15.1714 C.ar    1  UNL1        0.0446
     31 C          66.4152   92.6392   14.6977 C.ar    1  UNL1        0.1725
     32 C          66.2329   95.0257   11.5342 C.3     1  UNL1        0.2526
     33 O          66.6555   94.4554   12.8556 O.3     1  UNL1       -0.4684
     34 O          67.3261   93.4263   15.5926 O.3     1  UNL1       -0.4684
     35 C          68.7756   93.0557   15.7002 C.3     1  UNL1        0.2526
@<TRIPOS>BOND
     1    32    33    1
     2    33    26    1
     3    26    27   ar
     4    27    28   ar
     5    28    29   ar
     6    29    22    1
     7    22    23    2
     8    22    24   am
     9    24    21    1
    10    21     1    1
    11     1     2   ar
    12     2     3   ar
    13     3     4   ar
    14     4     5   ar
    15     5     7    1
    16     7     8    2
    17     7     9   am
    18     9    11    1
    19    11    12   ar
    20    12    13   ar
    21    13    14   ar
    22    14    17    1
    23    17    18    1
    24    18    19    1
    25    18    20    1
    26    14    15   ar
    27    15    16   ar
    28     5     6   ar
    29    29    30   ar
    30    30    31   ar
    31    31    34    1
    32    34    35    1
    33    31    26   ar
    34     6     1   ar
    35    16    11   ar
    36    24    25    1
    37     9    10    1
@<TRIPOS>MOLECULE
*****
 35 37 0 0 0
SMALL
GASTEIGER

@<TRIPOS>ATOM
      1 C          59.1367   90.0871    6.0333 C.ar    1  UNL1       -0.0024
      2 C          57.7258   90.5615    5.8485 C.ar    1  UNL1       -0.0026
      3 C          57.4178   91.6213    4.8325 C.ar    1  UNL1       -0.0001
      4 C          58.5208   92.2066    4.0014 C.ar    1  UNL1        0.0045
      5 C          59.9318   91.7322    4.1863 C.ar    1  UNL1        0.0534
      6 C          60.2397   90.6725    5.2022 C.ar    1  UNL1        0.0019
      7 C          61.0348   92.3175    3.3552 C.2     1  UNL1        0.2495
      8 O          62.4519   91.8759    3.5712 O.2     1  UNL1       -0.2698
      9 N          60.7207   93.3446    2.3080 N.am    1  UNL1       -0.2804
     10 H          59.7906   93.6345    2.1662 H       1  UNL1        0.1552
     11 C          61.8237   93.9300    1.4769 C.ar    1  UNL1        0.0505
     12 C          62.3998   95.2689    1.8309 C.ar    1  UNL1        0.0144
     13 C          63.5028   95.8542    0.9998 C.ar    1  UNL1       -0.0016
     14 C          64.0298   95.1007   -0.1852 C.ar    1  UNL1       -0.0061
     15 C          63.4537   93.7617   -0.5393 C.ar    1  UNL1       -0.0016
     16 C          62.3507   93.1763    0.2918 C.ar    1  UNL1        0.0144
     17 C          65.1328   95.6860   -1.0163 C.3     1  UNL1        0.0992
     18 N          64.8079   96.4262   -2.2798 N.3     1  UNL1       -0.2665
     19 C          63.3945   96.8398   -2.5645 C.3     1  UNL1        0.0899
     20 C          65.8965   96.7527   -3.2587 C.3     1  UNL1        0.0899
     21 C          59.4447   89.0273    7.0493 C.3     1  UNL1        0.1166
     22 C          60.9766   88.2758    9.0084 C.2     1  UNL1        0.2462
     23 O          60.8641   86.8519    8.5501 O.2     1  UNL1       -0.2701
     24 N          60.2669   89.3635    8.2580 N.am    1  UNL1       -0.2969
     25 H          60.3408   90.2980    8.5587 H       1  UNL1        0.1501
     26 C          63.4433   89.2841   12.6345 C.ar    1  UNL1        0.1724
     27 C          62.9733   90.3761   11.7198 C.ar    1  UNL1        0.0402
     28 C          62.1511   90.0399   10.5111 C.ar    1  UNL1        0.0078
     29 C          61.7988   88.6119   10.2171 C.ar    1  UNL1        0.0566
     30 C          62.2688   87.5199   11.1318 C.ar    1  UNL1        0.0446
     31 C          63.0911   87.8560   12.3405 C.ar    1  UNL1        0.1725
     32 C          63.7715   90.6393   14.8267 C.3     1  UNL1        0.2526
     33 O          64.2656   89.6202   13.8432 O.3     1  UNL1       -0.4684
     34 O          63.5611   86.7640   13.2552 O.3     1  UNL1       -0.4684
     35 C          63.2012   85.3368   12.9661 C.3     1  UNL1        0.2526
@<TRIPOS>BOND
     1    32    33    1
     2    33    26    1
     3    26    27   ar
     4    27    28   ar
     5    28    29   ar
     6    29    22    1
     7    22    23    2
     8    22    24   am
     9    24    21    1
    10    21     1    1
    11     1     2   ar
    12     2     3   ar
    13     3     4   ar
    14     4     5   ar
    15     5     7    1
    16     7     8    2
    17     7     9   am
    18     9    11    1
    19    11    12   ar
    20    12    13   ar
    21    13    14   ar
    22    14    17    1
    23    17    18    1
    24    18    19    1
    25    18    20    1
    26    14    15   ar
    27    15    16   ar
    28     5     6   ar
    29    29    30   ar
    30    30    31   ar
    31    31    34    1
    32    34    35    1
    33    31    26   ar
    34     6     1   ar
    35    16    11   ar
    36    24    25    1
    37     9    10    1
@<TRIPOS>MOLECULE
*****
 35 37 0 0 0
SMALL
GASTEIGER

@<TRIPOS>ATOM
      1 C          60.6137   88.1548    9.3503 C.ar    1  UNL1       -0.0024
      2 C          59.6772   86.9840    9.3047 C.ar    1  UNL1       -0.0026
      3 C          58.7160   86.8365    8.1625 C.ar    1  UNL1       -0.0001
      4 C          58.6916   87.8597    7.0660 C.ar    1  UNL1        0.0045
      5 C          59.6282   89.0305    7.1116 C.ar    1  UNL1        0.0534
      6 C          60.5893   89.1780    8.2538 C.ar    1  UNL1        0.0019
      7 C          59.6038   90.0538    6.0151 C.2     1  UNL1        0.2495
      8 O          58.2943   90.5973    5.5256 O.2     1  UNL1       -0.2698
      9 N          60.8889   90.5334    5.4081 N.am    1  UNL1       -0.2804
     10 H          61.7484   90.1767    5.7294 H       1  UNL1        0.1552
     11 C          60.8645   91.5567    4.3115 C.ar    1  UNL1        0.0505
     12 C          62.0589   91.7304    3.4211 C.ar    1  UNL1        0.0144
     13 C          62.0345   92.7536    2.3245 C.ar    1  UNL1       -0.0016
     14 C          60.8156   93.6031    2.1185 C.ar    1  UNL1       -0.0061
     15 C          59.6210   93.4294    3.0090 C.ar    1  UNL1       -0.0016
     16 C          59.6455   92.4062    4.1055 C.ar    1  UNL1        0.0144
     17 C          60.7911   94.6264    1.0219 C.3     1  UNL1        0.0992
     18 N          60.0061   94.3661   -0.2294 N.3     1  UNL1       -0.2665
     19 C          58.6359   94.9546   -0.3912 C.3     1  UNL1        0.0899
     20 C          60.5912   93.5173   -1.3189 C.3     1  UNL1        0.0899
     21 C          61.5749   88.3023   10.4925 C.3     1  UNL1        0.1166
     22 C          62.9134   90.1330   11.7602 C.2     1  UNL1        0.2462
     23 O          62.2372   89.7408   13.0404 O.2     1  UNL1       -0.2701
     24 N          62.5822   89.4137   10.4863 N.am    1  UNL1       -0.2969
     25 H          63.0260   89.6711    9.6460 H       1  UNL1        0.1501
     26 C          65.9354   93.4672   11.7414 C.ar    1  UNL1        0.1724
     27 C          65.2179   93.0982   10.4769 C.ar    1  UNL1        0.0402
     28 C          64.2105   91.9868   10.4832 C.ar    1  UNL1        0.0078
     29 C          63.9207   91.2444   11.7539 C.ar    1  UNL1        0.0566
     30 C          64.6382   91.6134   13.0184 C.ar    1  UNL1        0.0446
     31 C          65.6455   92.7249   13.0122 C.ar    1  UNL1        0.1725
     32 C          66.7823   95.7309   10.7883 C.3     1  UNL1        0.2526
     33 O          66.9427   94.5786   11.7352 O.3     1  UNL1       -0.4684
     34 O          66.3630   93.0939   14.2767 O.3     1  UNL1       -0.4684
     35 C          66.8051   92.0220   15.2284 C.3     1  UNL1        0.2526
@<TRIPOS>BOND
     1    32    33    1
     2    33    26    1
     3    26    27   ar
     4    27    28   ar
     5    28    29   ar
     6    29    22    1
     7    22    23    2
     8    22    24   am
     9    24    21    1
    10    21     1    1
    11     1     2   ar
    12     2     3   ar
    13     3     4   ar
    14     4     5   ar
    15     5     7    1
    16     7     8    2
    17     7     9   am
    18     9    11    1
    19    11    12   ar
    20    12    13   ar
    21    13    14   ar
    22    14    17    1
    23    17    18    1
    24    18    19    1
    25    18    20    1
    26    14    15   ar
    27    15    16   ar
    28     5     6   ar
    29    29    30   ar
    30    30    31   ar
    31    31    34    1
    32    34    35    1
    33    31    26   ar
    34     6     1   ar
    35    16    11   ar
    36    24    25    1
    37     9    10    1
@<TRIPOS>MOLECULE
*****
 35 37 0 0 0
SMALL
GASTEIGER

@<TRIPOS>ATOM
      1 C          59.2631   90.0953    6.2282 C.ar    1  UNL1       -0.0024
      2 C          57.8195   90.4648    6.0573 C.ar    1  UNL1       -0.0026
      3 C          57.4109   91.4082    4.9649 C.ar    1  UNL1       -0.0001
      4 C          58.4462   91.9822    4.0436 C.ar    1  UNL1        0.0045
      5 C          59.8899   91.6127    4.2146 C.ar    1  UNL1        0.0534
      6 C          60.2984   90.6693    5.3068 C.ar    1  UNL1        0.0019
      7 C          60.9252   92.1866    3.2932 C.2     1  UNL1        0.2495
      8 O          62.3701   91.8251    3.4705 O.2     1  UNL1       -0.2698
      9 N          60.5154   93.1222    2.1946 N.am    1  UNL1       -0.2804
     10 H          59.5670   93.3594    2.0782 H       1  UNL1        0.1552
     11 C          61.5506   93.6961    1.2732 C.ar    1  UNL1        0.0505
     12 C          61.6141   93.2467   -0.1564 C.ar    1  UNL1        0.0144
     13 C          62.6494   93.8206   -1.0778 C.ar    1  UNL1       -0.0016
     14 C          63.6211   94.8440   -0.5695 C.ar    1  UNL1       -0.0061
     15 C          63.5576   95.2935    0.8602 C.ar    1  UNL1       -0.0016
     16 C          62.5224   94.7195    1.7816 C.ar    1  UNL1        0.0144
     17 C          64.6563   95.4180   -1.4908 C.3     1  UNL1        0.0992
     18 N          64.3637   95.5545   -2.9556 N.3     1  UNL1       -0.2665
     19 C          63.8144   96.8424   -3.4939 C.3     1  UNL1        0.0899
     20 C          64.6203   94.4032   -3.8822 C.3     1  UNL1        0.0899
     21 C          59.6716   89.1519    7.3205 C.3     1  UNL1        0.1166
     22 C          61.3310   88.6667    9.2599 C.2     1  UNL1        0.2462
     23 O          61.2863   87.2037    8.9321 O.2     1  UNL1       -0.2701
     24 N          60.5237   89.6408    8.4541 N.am    1  UNL1       -0.2969
     25 H          60.5530   90.6011    8.6692 H       1  UNL1        0.1501
     26 C          63.8871   90.1336   12.6606 C.ar    1  UNL1        0.1724
     27 C          63.3027   88.7528   12.7030 C.ar    1  UNL1        0.0402
     28 C          62.4507   88.2638   11.5694 C.ar    1  UNL1        0.0078
     29 C          62.1830   89.1557   10.3934 C.ar    1  UNL1        0.0566
     30 C          62.7674   90.5365   10.3511 C.ar    1  UNL1        0.0446
     31 C          63.6194   91.0254   11.4847 C.ar    1  UNL1        0.1725
     32 C          64.1542   90.7553   15.1690 C.3     1  UNL1        0.2526
     33 O          64.7391   90.6225   13.7942 O.3     1  UNL1       -0.4684
     34 O          64.2038   92.4063   11.4422 O.3     1  UNL1       -0.4684
     35 C          65.5735   92.6239   10.8708 C.3     1  UNL1        0.2526
@<TRIPOS>BOND
     1    32    33    1
     2    33    26    1
     3    26    27   ar
     4    27    28   ar
     5    28    29   ar
     6    29    22    1
     7    22    23    2
     8    22    24   am
     9    24    21    1
    10    21     1    1
    11     1     2   ar
    12     2     3   ar
    13     3     4   ar
    14     4     5   ar
    15     5     7    1
    16     7     8    2
    17     7     9   am
    18     9    11    1
    19    11    12   ar
    20    12    13   ar
    21    13    14   ar
    22    14    17    1
    23    17    18    1
    24    18    19    1
    25    18    20    1
    26    14    15   ar
    27    15    16   ar
    28     5     6   ar
    29    29    30   ar
    30    30    31   ar
    31    31    34    1
    32    34    35    1
    33    31    26   ar
    34     6     1   ar
    35    16    11   ar
    36    24    25    1
    37     9    10    1
@<TRIPOS>MOLECULE
*****
 35 37 0 0 0
SMALL
GASTEIGER

@<TRIPOS>ATOM
      1 C          59.2175   91.7996    4.4981 C.ar    1  UNL1       -0.0024
      2 C          57.7260   91.9126    4.3861 C.ar    1  UNL1       -0.0026
      3 C          56.8424   91.0292    5.2162 C.ar    1  UNL1       -0.0001
      4 C          57.4505   90.0329    6.1583 C.ar    1  UNL1        0.0045
      5 C          58.9421   89.9200    6.2704 C.ar    1  UNL1        0.0534
      6 C          59.8256   90.8033    5.4402 C.ar    1  UNL1        0.0019
      7 C          59.5502   88.9237    7.2125 C.2     1  UNL1        0.2495
      8 O          59.3584   87.4547    6.9770 O.2     1  UNL1       -0.2698
      9 N          60.3500   89.3963    8.3902 N.am    1  UNL1       -0.2804
     10 H          60.4759   90.3604    8.5448 H       1  UNL1        0.1552
     11 C          60.9581   88.4000    9.3323 C.ar    1  UNL1        0.0505
     12 C          60.5511   86.9579    9.2641 C.ar    1  UNL1        0.0144
     13 C          61.1592   85.9616   10.2063 C.ar    1  UNL1       -0.0016
     14 C          62.1742   86.4074   11.2166 C.ar    1  UNL1       -0.0061
     15 C          62.5813   87.8496   11.2849 C.ar    1  UNL1       -0.0016
     16 C          61.9732   88.8459   10.3428 C.ar    1  UNL1        0.0144
     17 C          62.7823   85.4111   12.1588 C.3     1  UNL1        0.0992
     18 N          63.0474   84.0084   11.6984 N.3     1  UNL1       -0.2665
     19 C          63.7640   83.7671   10.4029 C.3     1  UNL1        0.0899
     20 C          62.5961   82.8470   12.5335 C.3     1  UNL1        0.0899
     21 C          60.1010   92.6830    3.6680 C.3     1  UNL1        0.1166
     22 C          60.6845   92.6693    1.1363 C.2     1  UNL1        0.2462
     23 O          62.0090   92.0366    1.4450 O.2     1  UNL1       -0.2701
     24 N          59.7305   92.9925    2.2478 N.am    1  UNL1       -0.2969
     25 H          58.8612   93.4078    2.0452 H       1  UNL1        0.1501
     26 C          59.5730   93.5979   -3.1242 C.ar    1  UNL1        0.1724
     27 C          60.9559   93.8986   -2.6273 C.ar    1  UNL1        0.0402
     28 C          61.3264   93.5891   -1.2072 C.ar    1  UNL1        0.0078
     29 C          60.3140   92.9788   -0.2839 C.ar    1  UNL1        0.0566
     30 C          58.9310   92.6781   -0.7808 C.ar    1  UNL1        0.0446
     31 C          58.5605   92.9876   -2.2010 C.ar    1  UNL1        0.1725
     32 C          60.1133   94.7456   -5.3915 C.3     1  UNL1        0.2526
     33 O          59.2024   93.9074   -4.5444 O.3     1  UNL1       -0.4684
     34 O          57.1775   92.6867   -2.6979 O.3     1  UNL1       -0.4684
     35 C          55.9838   93.2192   -1.9620 C.3     1  UNL1        0.2526
@<TRIPOS>BOND
     1    32    33    1
     2    33    26    1
     3    26    27   ar
     4    27    28   ar
     5    28    29   ar
     6    29    22    1
     7    22    23    2
     8    22    24   am
     9    24    21    1
    10    21     1    1
    11     1     2   ar
    12     2     3   ar
    13     3     4   ar
    14     4     5   ar
    15     5     7    1
    16     7     8    2
    17     7     9   am
    18     9    11    1
    19    11    12   ar
    20    12    13   ar
    21    13    14   ar
    22    14    17    1
    23    17    18    1
    24    18    19    1
    25    18    20    1
    26    14    15   ar
    27    15    16   ar
    28     5     6   ar
    29    29    30   ar
    30    30    31   ar
    31    31    34    1
    32    34    35    1
    33    31    26   ar
    34     6     1   ar
    35    16    11   ar
    36    24    25    1
    37     9    10    1
