@<TRIPOS>MOLECULE
*****
 34 38 0 0 0
SMALL
GASTEIGER

@<TRIPOS>ATOM
      1 C          64.6070   90.1513   14.9348 C.ar    1  UNL1        0.2601
      2 N          64.6084   88.7912   14.3024 N.ar    1  UNL1       -0.1870
      3 C          63.7727   87.8829   15.1546 C.ar    1  UNL1        0.2036
      4 N          63.2547   88.6816   16.3138 N.ar    1  UNL1       -0.0556
      5 O          63.7703   90.0836   16.1780 O.2     1  UNL1       -0.3324
      6 C          63.5023   86.4307   14.8936 C.ar    1  UNL1        0.0392
      7 C          63.0044   85.5496   16.0007 C.ar    1  UNL1        0.0046
      8 C          62.7341   84.0975   15.7396 C.ar    1  UNL1        0.0173
      9 C          62.9616   83.5264   14.3714 C.ar    1  UNL1        0.0596
     10 C          63.4594   84.4075   13.2642 C.ar    1  UNL1        0.0170
     11 C          63.7298   85.8596   13.5253 C.ar    1  UNL1        0.0046
     12 C          63.5897   83.5688   12.0275 C.ar    1  UNL1        0.0142
     13 C          63.1724   82.1694   12.3702 C.ar    1  UNL1        0.0371
     14 N          62.7842   82.1431   13.8189 N.ar    1  UNL1       -0.3306
     15 C          62.3669   80.7438   14.1616 C.3     1  UNL1        0.1061
     16 C          62.4972   79.9051   12.9249 C.3     1  UNL1        0.0307
     17 C          62.9950   80.7862   11.8177 C.3     1  UNL1        0.0458
     18 C          63.2676   80.3590   10.4059 C.3     1  UNL1        0.0476
     19 C          62.5953   79.1397    9.8481 C.2     1  UNL1        0.0507
     20 O          62.8599   77.7937   10.4547 O.co2   1  UNL1       -0.5492
     21 O          61.6583   79.2665    8.6836 O.co2   1  UNL1       -0.5492
     22 C          67.0536   93.2704   14.7459 C.ar    1  UNL1        0.0716
     23 C          66.7385   93.7952   13.3764 C.ar    1  UNL1        0.0475
     24 C          65.7130   93.1054   12.5265 C.ar    1  UNL1        0.1476
     25 C          65.0025   91.8908   13.0459 C.ar    1  UNL1        0.0420
     26 C          65.3175   91.3660   14.4154 C.ar    1  UNL1        0.0598
     27 C          66.3431   92.0558   15.2653 C.ar    1  UNL1        0.0152
     28 N          69.1047   94.6500   16.4458 N.1     1  UNL1       -0.1908
     29 C          68.0791   93.9602   15.5958 C.1     1  UNL1        0.1005
     30 O          65.3980   93.6302   11.1571 O.3     1  UNL1       -0.4044
     31 C          66.4879   93.7602   10.1347 C.3     1  UNL1        0.5753
     32 F          67.5778   93.8903    9.1123 F       1  UNL1       -0.1328
     33 F          66.1691   95.2178    9.9802 F       1  UNL1       -0.1328
     34 F          66.8068   92.3028   10.2891 F       1  UNL1       -0.1328
@<TRIPOS>UNITY_ATOM_ATTR
20 1
charge -1
@<TRIPOS>BOND
     1    28    29    3
     2    29    22    1
     3    22    23   ar
     4    23    24   ar
     5    24    30    1
     6    30    31    1
     7    31    32    1
     8    31    33    1
     9    31    34    1
    10    24    25   ar
    11    25    26   ar
    12    26     1    1
    13     1     2   ar
    14     2     3   ar
    15     3     6    1
    16     6     7   ar
    17     7     8   ar
    18     8     9   ar
    19     9    10   ar
    20    10    11   ar
    21    10    12   ar
    22    12    13   ar
    23    13    14   ar
    24    14    15    1
    25    15    16    1
    26    16    17    1
    27    17    18    1
    28    18    19    1
    29    19    20   ar
    30    19    21   ar
    31     3     4   ar
    32     4     5   ar
    33    26    27   ar
    34    27    22   ar
    35     5     1   ar
    36    11     6   ar
    37    17    13    1
    38    14     9   ar
@<TRIPOS>MOLECULE
*****
 34 38 0 0 0
SMALL
GASTEIGER

@<TRIPOS>ATOM
      1 C          63.5320   86.2937   14.3770 C.ar    1  UNL1        0.2601
      2 N          64.0379   87.4612   13.5826 N.ar    1  UNL1       -0.1870
      3 C          64.1684   88.6320   14.5110 C.ar    1  UNL1        0.2036
      4 N          63.7432   88.1882   15.8794 N.ar    1  UNL1       -0.0556
      5 O          63.3499   86.7430   15.7966 O.2     1  UNL1       -0.3324
      6 C          64.6411   90.0056   14.1369 C.ar    1  UNL1        0.0392
      7 C          65.2188   90.9110   15.1840 C.ar    1  UNL1        0.0046
      8 C          65.6915   92.2845   14.8099 C.ar    1  UNL1        0.0173
      9 C          65.5866   92.7526   13.3886 C.ar    1  UNL1        0.0596
     10 C          65.0089   91.8471   12.3416 C.ar    1  UNL1        0.0170
     11 C          64.5362   90.4736   12.7157 C.ar    1  UNL1        0.0046
     12 C          65.0323   92.5785   11.0322 C.ar    1  UNL1        0.0142
     13 C          65.6245   93.9360   11.2700 C.ar    1  UNL1        0.0371
     14 N          65.9670   94.0436   12.7264 N.ar    1  UNL1       -0.3306
     15 C          66.5591   95.4011   12.9642 C.3     1  UNL1        0.1061
     16 C          66.5826   96.1325   11.6549 C.3     1  UNL1        0.0307
     17 C          66.0049   95.2270   10.6078 C.3     1  UNL1        0.0458
     18 C          65.8371   95.5550    9.1537 C.3     1  UNL1        0.0476
     19 C          67.0292   95.5583    8.2432 C.2     1  UNL1        0.0507
     20 O          67.6867   94.2646    7.8639 O.co2   1  UNL1       -0.5492
     21 O          67.5636   96.8553    7.7119 O.co2   1  UNL1       -0.5492
     22 C          63.5808   83.1095   12.0088 C.ar    1  UNL1        0.0716
     23 C          62.7058   82.1679   12.7820 C.ar    1  UNL1        0.0475
     24 C          62.1062   82.6014   14.0868 C.ar    1  UNL1        0.1476
     25 C          62.3816   83.9768   14.6184 C.ar    1  UNL1        0.0420
     26 C          63.2566   84.9184   13.8453 C.ar    1  UNL1        0.0598
     27 C          63.8561   84.4847   12.5406 C.ar    1  UNL1        0.0152
     28 N          64.7798   82.2422    9.3993 N.1     1  UNL1       -0.1908
     29 C          64.1803   82.6759   10.7041 C.1     1  UNL1        0.1005
     30 O          61.2313   81.6598   14.8599 O.3     1  UNL1       -0.4044
     31 C          60.8112   80.3551   14.2505 C.3     1  UNL1        0.5753
     32 F          60.3912   79.0503   13.6410 F       1  UNL1       -0.1328
     33 F          62.2356   79.8855   14.2741 F       1  UNL1       -0.1328
     34 F          59.3869   80.8246   14.2269 F       1  UNL1       -0.1328
@<TRIPOS>UNITY_ATOM_ATTR
20 1
charge -1
@<TRIPOS>BOND
     1    28    29    3
     2    29    22    1
     3    22    23   ar
     4    23    24   ar
     5    24    30    1
     6    30    31    1
     7    31    32    1
     8    31    33    1
     9    31    34    1
    10    24    25   ar
    11    25    26   ar
    12    26     1    1
    13     1     2   ar
    14     2     3   ar
    15     3     6    1
    16     6     7   ar
    17     7     8   ar
    18     8     9   ar
    19     9    10   ar
    20    10    11   ar
    21    10    12   ar
    22    12    13   ar
    23    13    14   ar
    24    14    15    1
    25    15    16    1
    26    16    17    1
    27    17    18    1
    28    18    19    1
    29    19    20   ar
    30    19    21   ar
    31     3     4   ar
    32     4     5   ar
    33    26    27   ar
    34    27    22   ar
    35     5     1   ar
    36    11     6   ar
    37    17    13    1
    38    14     9   ar
@<TRIPOS>MOLECULE
*****
 34 38 0 0 0
SMALL
GASTEIGER

@<TRIPOS>ATOM
      1 C          62.7879   84.1097   14.3963 C.ar    1  UNL1        0.2601
      2 N          63.0978   85.2833   13.5150 N.ar    1  UNL1       -0.1870
      3 C          63.4776   86.4367   14.3955 C.ar    1  UNL1        0.2036
      4 N          63.4024   85.9760   15.8211 N.ar    1  UNL1       -0.0556
      5 O          62.9762   84.5379   15.8216 O.2     1  UNL1       -0.3324
      6 C          63.8646   87.8098   13.9320 C.ar    1  UNL1        0.0392
      7 C          63.3691   88.3234   12.6126 C.ar    1  UNL1        0.0046
      8 C          63.7562   89.6965   12.1491 C.ar    1  UNL1        0.0173
      9 C          64.6387   90.5559   13.0049 C.ar    1  UNL1        0.0596
     10 C          65.1342   90.0424   14.3243 C.ar    1  UNL1        0.0170
     11 C          64.7471   88.6693   14.7878 C.ar    1  UNL1        0.0046
     12 C          65.9844   91.1096   14.9474 C.ar    1  UNL1        0.0142
     13 C          66.0143   92.2827   14.0131 C.ar    1  UNL1        0.0371
     14 N          65.1827   91.9406   12.8126 N.ar    1  UNL1       -0.3306
     15 C          65.2126   93.1137   11.8784 C.3     1  UNL1        0.1061
     16 C          66.0628   94.1809   12.5015 C.3     1  UNL1        0.0307
     17 C          66.5583   93.6673   13.8208 C.3     1  UNL1        0.0458
     18 C          67.4426   94.4082   14.7796 C.3     1  UNL1        0.0476
     19 C          68.7222   93.7858   15.2538 C.2     1  UNL1        0.0507
     20 O          69.2886   92.5964   14.5365 O.co2   1  UNL1       -0.5492
     21 O          69.4355   94.3527   16.4454 O.co2   1  UNL1       -0.5492
     22 C          60.7119   80.7454   14.0474 C.ar    1  UNL1        0.0716
     23 C          61.5166   80.0223   13.0083 C.ar    1  UNL1        0.0475
     24 C          62.7450   80.6617   12.4319 C.ar    1  UNL1        0.1476
     25 C          63.1687   82.0242   12.8945 C.ar    1  UNL1        0.0420
     26 C          62.3641   82.7472   13.9336 C.ar    1  UNL1        0.0598
     27 C          61.1358   82.1078   14.5100 C.ar    1  UNL1        0.0152
     28 N          58.2552   79.4666   15.2003 N.1     1  UNL1       -0.1908
     29 C          59.4836   80.1060   14.6238 C.1     1  UNL1        0.1005
     30 O          63.5496   79.9386   11.3928 O.3     1  UNL1       -0.4044
     31 C          62.9281   79.5869   10.0737 C.3     1  UNL1        0.5753
     32 F          62.3066   79.2352    8.7545 F       1  UNL1       -0.1328
     33 F          63.0586   81.0143    9.6316 F       1  UNL1       -0.1328
     34 F          62.7975   78.1595   10.5157 F       1  UNL1       -0.1328
@<TRIPOS>UNITY_ATOM_ATTR
20 1
charge -1
@<TRIPOS>BOND
     1    28    29    3
     2    29    22    1
     3    22    23   ar
     4    23    24   ar
     5    24    30    1
     6    30    31    1
     7    31    32    1
     8    31    33    1
     9    31    34    1
    10    24    25   ar
    11    25    26   ar
    12    26     1    1
    13     1     2   ar
    14     2     3   ar
    15     3     6    1
    16     6     7   ar
    17     7     8   ar
    18     8     9   ar
    19     9    10   ar
    20    10    11   ar
    21    10    12   ar
    22    12    13   ar
    23    13    14   ar
    24    14    15    1
    25    15    16    1
    26    16    17    1
    27    17    18    1
    28    18    19    1
    29    19    20   ar
    30    19    21   ar
    31     3     4   ar
    32     4     5   ar
    33    26    27   ar
    34    27    22   ar
    35     5     1   ar
    36    11     6   ar
    37    17    13    1
    38    14     9   ar
