@<TRIPOS>MOLECULE
*****
 21 22 0 0 0
SMALL
GASTEIGER

@<TRIPOS>ATOM
      1 C          65.9691   92.2612   12.9879 C.3     1  UNL1        0.1672
      2 C          66.3453   93.1261   11.8214 C.3     1  UNL1        0.0571
      3 C          66.8728   92.6461   10.5018 C.3     1  UNL1        0.0221
      4 C          67.1135   93.8461    9.6346 C.3     1  UNL1        0.0687
      5 N          66.7347   95.0677   10.4183 N.3     1  UNL1       -0.2974
      6 C          66.2599   94.6227   11.7697 C.3     1  UNL1        0.0722
      7 H          65.9885   95.5699    9.9373 H       1  UNL1        0.1232
      8 O          64.5264   91.9518   13.2577 O.3     1  UNL1       -0.4779
      9 C          62.4877   88.6114   11.0363 C.ar    1  UNL1        0.2248
     10 C          62.6033   89.9687   10.4084 C.ar    1  UNL1        0.0608
     11 C          63.2829   91.0822   11.1489 C.ar    1  UNL1        0.0429
     12 C          63.8469   90.8384   12.5172 C.ar    1  UNL1        0.1520
     13 C          63.7313   89.4810   13.1451 C.ar    1  UNL1        0.0962
     14 C          64.2953   89.2371   14.5135 C.3     1  UNL1        0.0555
     15 N          63.0517   88.3675   12.4046 N.ar    1  UNL1       -0.2130
     16 C          61.3313   86.2849   11.0381 C.3     1  UNL1        0.2542
     17 O          61.8082   87.4979   10.2958 O.3     1  UNL1       -0.4561
     18 C          67.0357   91.7057   13.8844 C.3     1  UNL1        0.0436
     19 C          67.3876   92.4135   15.1593 C.3     1  UNL1        0.0036
     20 C          68.7915   92.8881   15.3907 C.3     1  UNL1        0.0001
     21 C          66.3354   92.6468   16.2026 C.3     1  UNL1        0.0001
@<TRIPOS>BOND
     1    16    17    1
     2    17     9    1
     3     9    10   ar
     4    10    11   ar
     5    11    12   ar
     6    12     8    1
     7     8     1    1
     8     1    18    1
     9    18    19    1
    10    19    20    1
    11    19    21    1
    12     1     2    1
    13     2     3    1
    14     3     4    1
    15     4     5    1
    16     5     6    1
    17    12    13   ar
    18    13    14    1
    19    13    15   ar
    20    15     9   ar
    21     6     2    1
    22     5     7    1
@<TRIPOS>MOLECULE
*****
 21 22 0 0 0
SMALL
GASTEIGER

@<TRIPOS>ATOM
      1 C          65.5839   92.3989   12.2770 C.3     1  UNL1        0.1672
      2 C          66.6770   92.5795   13.2883 C.3     1  UNL1        0.0571
      3 C          66.6677   93.5489   14.4329 C.3     1  UNL1        0.0221
      4 C          67.9562   93.3910   15.1845 C.3     1  UNL1        0.0687
      5 N          68.7618   92.3240   14.5044 N.3     1  UNL1       -0.2974
      6 C          67.9712   91.8225   13.3324 C.3     1  UNL1        0.0722
      7 H          68.9410   91.5584   15.1542 H       1  UNL1        0.1232
      8 O          64.2122   91.9855   12.7210 O.3     1  UNL1       -0.4779
      9 C          62.3828   88.1911   11.1379 C.ar    1  UNL1        0.2248
     10 C          62.2931   89.4573   10.3387 C.ar    1  UNL1        0.0608
     11 C          62.9029   90.7221   10.8664 C.ar    1  UNL1        0.0429
     12 C          63.6024   90.7207   12.1933 C.ar    1  UNL1        0.1520
     13 C          63.6921   89.4545   12.9925 C.ar    1  UNL1        0.0962
     14 C          64.3916   89.4531   14.3195 C.3     1  UNL1        0.0555
     15 N          63.0823   88.1897   12.4648 N.ar    1  UNL1       -0.2130
     16 C          61.9301   85.6435   11.3714 C.3     1  UNL1        0.2542
     17 O          61.7730   86.9264   10.6102 O.3     1  UNL1       -0.4561
     18 C          65.8628   92.6316   10.8216 C.3     1  UNL1        0.0436
     19 C          66.5095   93.9100   10.3769 C.3     1  UNL1        0.0036
     20 C          65.9866   95.2263   10.8708 C.3     1  UNL1        0.0001
     21 C          67.6790   93.8720    9.4385 C.3     1  UNL1        0.0001
@<TRIPOS>BOND
     1    16    17    1
     2    17     9    1
     3     9    10   ar
     4    10    11   ar
     5    11    12   ar
     6    12     8    1
     7     8     1    1
     8     1    18    1
     9    18    19    1
    10    19    20    1
    11    19    21    1
    12     1     2    1
    13     2     3    1
    14     3     4    1
    15     4     5    1
    16     5     6    1
    17    12    13   ar
    18    13    14    1
    19    13    15   ar
    20    15     9   ar
    21     6     2    1
    22     5     7    1
@<TRIPOS>MOLECULE
*****
 21 22 0 0 0
SMALL
GASTEIGER

@<TRIPOS>ATOM
      1 C          65.3196   92.4117   12.4783 C.3     1  UNL1        0.1672
      2 C          66.5200   92.5802   13.3620 C.3     1  UNL1        0.0571
      3 C          66.6674   93.5838   14.4671 C.3     1  UNL1        0.0221
      4 C          68.0221   93.3986   15.0838 C.3     1  UNL1        0.0687
      5 N          68.7120   92.2804   14.3599 N.3     1  UNL1       -0.2974
      6 C          67.7836   91.7747   13.2958 C.3     1  UNL1        0.0722
      7 H          68.9318   91.5287   15.0133 H       1  UNL1        0.1232
      8 O          64.0567   91.8224   13.0330 O.3     1  UNL1       -0.4779
      9 C          63.7106   87.3719   13.6016 C.ar    1  UNL1        0.2248
     10 C          64.4102   88.2075   14.6323 C.ar    1  UNL1        0.0608
     11 C          64.5255   89.6910   14.4427 C.ar    1  UNL1        0.0429
     12 C          63.9414   90.3389   13.2226 C.ar    1  UNL1        0.1520
     13 C          63.2418   89.5033   12.1919 C.ar    1  UNL1        0.0962
     14 C          62.6576   90.1512   10.9716 C.3     1  UNL1        0.0555
     15 N          63.1265   88.0198   12.3814 N.ar    1  UNL1       -0.2130
     16 C          64.3938   85.2047   14.8610 C.3     1  UNL1        0.2542
     17 O          63.5953   85.8884   13.7911 O.3     1  UNL1       -0.4561
     18 C          65.3823   92.8325   11.0399 C.3     1  UNL1        0.0436
     19 C          66.5390   93.6510   10.5476 C.3     1  UNL1        0.0036
     20 C          66.5826   95.1259   10.8170 C.3     1  UNL1        0.0001
     21 C          67.6520   92.9945    9.7860 C.3     1  UNL1        0.0001
@<TRIPOS>BOND
     1    16    17    1
     2    17     9    1
     3     9    10   ar
     4    10    11   ar
     5    11    12   ar
     6    12     8    1
     7     8     1    1
     8     1    18    1
     9    18    19    1
    10    19    20    1
    11    19    21    1
    12     1     2    1
    13     2     3    1
    14     3     4    1
    15     4     5    1
    16     5     6    1
    17    12    13   ar
    18    13    14    1
    19    13    15   ar
    20    15     9   ar
    21     6     2    1
    22     5     7    1
@<TRIPOS>MOLECULE
*****
 21 22 0 0 0
SMALL
GASTEIGER

@<TRIPOS>ATOM
      1 C          62.3711   85.6653    9.9699 C.3     1  UNL1        0.1672
      2 C          62.9641   84.5097   10.7204 C.3     1  UNL1        0.0571
      3 C          63.8730   83.4614   10.1503 C.3     1  UNL1        0.0221
      4 C          64.2230   82.5034   11.2502 C.3     1  UNL1        0.0687
      5 N          63.5304   82.9597   12.5001 N.3     1  UNL1       -0.2974
      6 C          62.7523   84.1996   12.1726 C.3     1  UNL1        0.0722
      7 H          64.2202   83.1647   13.2229 H       1  UNL1        0.1232
      8 O          61.4956   86.6527   10.6830 O.3     1  UNL1       -0.4779
      9 C          63.2413   90.5004   12.2314 C.ar    1  UNL1        0.2248
     10 C          63.6375   89.1937   12.8522 C.ar    1  UNL1        0.0608
     11 C          63.0556   87.9111   12.3361 C.ar    1  UNL1        0.0429
     12 C          62.0775   87.9352   11.1992 C.ar    1  UNL1        0.1520
     13 C          61.6813   89.2420   10.5784 C.ar    1  UNL1        0.0962
     14 C          60.7031   89.2662    9.4414 C.3     1  UNL1        0.0555
     15 N          62.2632   90.5245   11.0945 N.ar    1  UNL1       -0.2130
     16 C          65.2816   92.0761   12.5546 C.3     1  UNL1        0.2542
     17 O          63.8232   91.7830   12.7475 O.3     1  UNL1       -0.4561
     18 C          62.6536   85.8334    8.5064 C.3     1  UNL1        0.0436
     19 C          61.6139   85.4549    7.4935 C.3     1  UNL1        0.0036
     20 C          61.9833   84.5850    6.3287 C.3     1  UNL1        0.0001
     21 C          60.2049   85.9463    7.6456 C.3     1  UNL1        0.0001
@<TRIPOS>BOND
     1    16    17    1
     2    17     9    1
     3     9    10   ar
     4    10    11   ar
     5    11    12   ar
     6    12     8    1
     7     8     1    1
     8     1    18    1
     9    18    19    1
    10    19    20    1
    11    19    21    1
    12     1     2    1
    13     2     3    1
    14     3     4    1
    15     4     5    1
    16     5     6    1
    17    12    13   ar
    18    13    14    1
    19    13    15   ar
    20    15     9   ar
    21     6     2    1
    22     5     7    1
@<TRIPOS>MOLECULE
*****
 21 22 0 0 0
SMALL
GASTEIGER

@<TRIPOS>ATOM
      1 C          63.0328   83.5093   12.1844 C.3     1  UNL1        0.1672
      2 C          63.4095   84.0685   13.5244 C.3     1  UNL1        0.0571
      3 C          62.4585   84.4450   14.6216 C.3     1  UNL1        0.0221
      4 C          63.2646   84.9586   15.7777 C.3     1  UNL1        0.0687
      5 N          64.7138   84.8994   15.3949 N.3     1  UNL1       -0.2974
      6 C          64.8033   84.3494   14.0023 C.3     1  UNL1        0.0722
      7 H          65.2177   84.2913   16.0403 H       1  UNL1        0.1232
      8 O          63.3668   84.2680   10.9343 O.3     1  UNL1       -0.4779
      9 C          60.6142   87.5119    9.4678 C.ar    1  UNL1        0.2248
     10 C          60.7190   87.2242   10.9362 C.ar    1  UNL1        0.0608
     11 C          61.6365   86.1429   11.4250 C.ar    1  UNL1        0.0429
     12 C          62.4492   85.3493   10.4455 C.ar    1  UNL1        0.1520
     13 C          62.3445   85.6370    8.9771 C.ar    1  UNL1        0.0962
     14 C          63.1573   84.8434    7.9974 C.3     1  UNL1        0.0555
     15 N          61.4270   86.7183    8.4882 N.ar    1  UNL1       -0.2130
     16 C          59.3995   88.7192    7.5141 C.3     1  UNL1        0.2542
     17 O          59.6967   88.5932    8.9790 O.3     1  UNL1       -0.4561
     18 C          62.3220   82.1915   12.0946 C.3     1  UNL1        0.0436
     19 C          62.3262   81.2557   13.2670 C.3     1  UNL1        0.0036
     20 C          61.0560   80.9909   14.0197 C.3     1  UNL1        0.0001
     21 C          63.6005   80.5848   13.6866 C.3     1  UNL1        0.0001
@<TRIPOS>BOND
     1    16    17    1
     2    17     9    1
     3     9    10   ar
     4    10    11   ar
     5    11    12   ar
     6    12     8    1
     7     8     1    1
     8     1    18    1
     9    18    19    1
    10    19    20    1
    11    19    21    1
    12     1     2    1
    13     2     3    1
    14     3     4    1
    15     4     5    1
    16     5     6    1
    17    12    13   ar
    18    13    14    1
    19    13    15   ar
    20    15     9   ar
    21     6     2    1
    22     5     7    1
@<TRIPOS>MOLECULE
*****
 21 22 0 0 0
SMALL
GASTEIGER

@<TRIPOS>ATOM
      1 C          62.3183   87.1935   11.1421 C.3     1  UNL1        0.1672
      2 C          62.6643   85.8307   11.6650 C.3     1  UNL1        0.0571
      3 C          62.5421   84.5398   10.9109 C.3     1  UNL1        0.0221
      4 C          62.9955   83.4310   11.8136 C.3     1  UNL1        0.0687
      5 N          63.3978   84.0366   13.1257 N.3     1  UNL1       -0.2974
      6 C          63.1931   85.5197   13.0338 C.3     1  UNL1        0.0722
      7 H          64.3795   83.8337   13.3140 H       1  UNL1        0.1232
      8 O          62.0908   88.3277   12.0969 O.3     1  UNL1       -0.4779
      9 C          64.7611   91.9475   11.9681 C.ar    1  UNL1        0.2248
     10 C          63.8309   91.6607   10.8269 C.ar    1  UNL1        0.0608
     11 C          62.9408   90.4541   10.8698 C.ar    1  UNL1        0.0429
     12 C          62.9809   89.5343   12.0540 C.ar    1  UNL1        0.1520
     13 C          63.9111   89.8210   13.1952 C.ar    1  UNL1        0.0962
     14 C          63.9512   88.9012   14.3794 C.3     1  UNL1        0.0555
     15 N          64.8012   91.0276   13.1523 N.ar    1  UNL1       -0.2130
     16 C          65.7360   93.9794   10.6755 C.3     1  UNL1        0.2542
     17 O          65.6512   93.1540   11.9252 O.3     1  UNL1       -0.4561
     18 C          62.1999   87.4219    9.6643 C.3     1  UNL1        0.0436
     19 C          60.8468   87.5730    9.0348 C.3     1  UNL1        0.0036
     20 C          60.1869   88.9193    8.9893 C.3     1  UNL1        0.0001
     21 C          60.1536   86.3778    8.4508 C.3     1  UNL1        0.0001
@<TRIPOS>BOND
     1    16    17    1
     2    17     9    1
     3     9    10   ar
     4    10    11   ar
     5    11    12   ar
     6    12     8    1
     7     8     1    1
     8     1    18    1
     9    18    19    1
    10    19    20    1
    11    19    21    1
    12     1     2    1
    13     2     3    1
    14     3     4    1
    15     4     5    1
    16     5     6    1
    17    12    13   ar
    18    13    14    1
    19    13    15   ar
    20    15     9   ar
    21     6     2    1
    22     5     7    1
@<TRIPOS>MOLECULE
*****
 21 22 0 0 0
SMALL
GASTEIGER

@<TRIPOS>ATOM
      1 C          63.7179   83.3634   14.0258 C.3     1  UNL1        0.1672
      2 C          63.3315   84.3578   15.0803 C.3     1  UNL1        0.0571
      3 C          64.1899   85.4746   15.5960 C.3     1  UNL1        0.0221
      4 C          63.4078   86.2170   16.6386 C.3     1  UNL1        0.0687
      5 N          62.0659   85.5590   16.7673 N.3     1  UNL1       -0.2974
      6 C          62.0187   84.4100   15.8042 C.3     1  UNL1        0.0722
      7 H          61.3293   86.2284   16.5439 H       1  UNL1        0.1232
      8 O          64.3290   83.8339   12.7393 O.3     1  UNL1       -0.4779
      9 C          61.8145   86.0372    9.7272 C.ar    1  UNL1        0.2248
     10 C          61.8086   86.4643   11.1651 C.ar    1  UNL1        0.0608
     11 C          62.6467   85.7298   12.1691 C.ar    1  UNL1        0.0429
     12 C          63.4909   84.5683   11.7353 C.ar    1  UNL1        0.1520
     13 C          63.4968   84.1413   10.2974 C.ar    1  UNL1        0.0962
     14 C          64.3410   82.9797    9.8635 C.3     1  UNL1        0.0555
     15 N          62.6586   84.8757    9.2934 N.ar    1  UNL1       -0.2130
     16 C          60.1378   86.0064    7.7429 C.3     1  UNL1        0.2542
     17 O          60.9763   86.7717    8.7232 O.3     1  UNL1       -0.4561
     18 C          63.4933   81.8986   14.2579 C.3     1  UNL1        0.0436
     19 C          62.4263   81.1730   13.4930 C.3     1  UNL1        0.0036
     20 C          61.0533   81.0243   14.0784 C.3     1  UNL1        0.0001
     21 C          62.7323   80.5962   12.1426 C.3     1  UNL1        0.0001
@<TRIPOS>BOND
     1    16    17    1
     2    17     9    1
     3     9    10   ar
     4    10    11   ar
     5    11    12   ar
     6    12     8    1
     7     8     1    1
     8     1    18    1
     9    18    19    1
    10    19    20    1
    11    19    21    1
    12     1     2    1
    13     2     3    1
    14     3     4    1
    15     4     5    1
    16     5     6    1
    17    12    13   ar
    18    13    14    1
    19    13    15   ar
    20    15     9   ar
    21     6     2    1
    22     5     7    1
@<TRIPOS>MOLECULE
*****
 21 22 0 0 0
SMALL
GASTEIGER

@<TRIPOS>ATOM
      1 C          62.2842   87.4839   11.2055 C.3     1  UNL1        0.1672
      2 C          62.6493   86.1556   11.7992 C.3     1  UNL1        0.0571
      3 C          63.3785   85.9382   13.0919 C.3     1  UNL1        0.0221
      4 C          63.5292   84.4598   13.2962 C.3     1  UNL1        0.0687
      5 N          62.8931   83.7635   12.1297 N.3     1  UNL1       -0.2974
      6 C          62.3493   84.8116   11.2046 C.3     1  UNL1        0.0722
      7 H          62.1358   83.1632   12.4559 H       1  UNL1        0.1232
      8 O          61.9668   88.6442   12.1015 O.3     1  UNL1       -0.4779
      9 C          65.2500   91.4122   13.4465 C.ar    1  UNL1        0.2248
     10 C          64.8859   90.2196   14.2802 C.ar    1  UNL1        0.0608
     11 C          63.7915   89.2969   13.8319 C.ar    1  UNL1        0.0429
     12 C          63.0612   89.5668   12.5498 C.ar    1  UNL1        0.1520
     13 C          63.4253   90.7594   11.7161 C.ar    1  UNL1        0.0962
     14 C          62.6949   91.0294   10.4340 C.3     1  UNL1        0.0555
     15 N          64.5197   91.6821   12.1645 N.ar    1  UNL1       -0.2130
     16 C          66.4552   92.7203   15.3402 C.3     1  UNL1        0.2542
     17 O          66.3444   92.3348   13.8949 O.3     1  UNL1       -0.4561
     18 C          62.2365   87.6517    9.7156 C.3     1  UNL1        0.0436
     19 C          60.9197   87.6116    8.9982 C.3     1  UNL1        0.0036
     20 C          60.0976   88.8596    8.8692 C.3     1  UNL1        0.0001
     21 C          60.4252   86.3235    8.4098 C.3     1  UNL1        0.0001
@<TRIPOS>BOND
     1    16    17    1
     2    17     9    1
     3     9    10   ar
     4    10    11   ar
     5    11    12   ar
     6    12     8    1
     7     8     1    1
     8     1    18    1
     9    18    19    1
    10    19    20    1
    11    19    21    1
    12     1     2    1
    13     2     3    1
    14     3     4    1
    15     4     5    1
    16     5     6    1
    17    12    13   ar
    18    13    14    1
    19    13    15   ar
    20    15     9   ar
    21     6     2    1
    22     5     7    1
@<TRIPOS>MOLECULE
*****
 21 22 0 0 0
SMALL
GASTEIGER

@<TRIPOS>ATOM
      1 C          62.7950   84.5570   12.3013 C.3     1  UNL1        0.1672
      2 C          62.9899   84.8558   13.7583 C.3     1  UNL1        0.0571
      3 C          64.0822   85.6987   14.3470 C.3     1  UNL1        0.0221
      4 C          63.8942   85.7281   15.8348 C.3     1  UNL1        0.0687
      5 N          62.6857   84.9034   16.1657 N.3     1  UNL1       -0.2974
      6 C          62.1268   84.3643   14.8823 C.3     1  UNL1        0.0722
      7 H          61.9874   85.4836   16.6306 H       1  UNL1        0.1232
      8 O          63.1662   85.5805   11.2695 O.3     1  UNL1       -0.4779
      9 C          59.9899   87.3724    8.6333 C.ar    1  UNL1        0.2248
     10 C          59.9970   87.6657   10.1043 C.ar    1  UNL1        0.0608
     11 C          61.0558   87.0683   10.9830 C.ar    1  UNL1        0.0429
     12 C          62.1074   86.1778   10.3908 C.ar    1  UNL1        0.1520
     13 C          62.1003   85.8845    8.9198 C.ar    1  UNL1        0.0962
     14 C          63.1521   84.9939    8.3274 C.3     1  UNL1        0.0555
     15 N          61.0416   86.4819    8.0410 N.ar    1  UNL1       -0.2130
     16 C          59.2480   89.1642    6.9043 C.3     1  UNL1        0.2542
     17 O          58.9311   87.9698    7.7545 O.3     1  UNL1       -0.4561
     18 C          62.2288   83.2346   11.8762 C.3     1  UNL1        0.0436
     19 C          63.1470   82.0859   11.5801 C.3     1  UNL1        0.0036
     20 C          64.2304   82.2371   10.5537 C.3     1  UNL1        0.0001
     21 C          62.9818   80.7861   12.3103 C.3     1  UNL1        0.0001
@<TRIPOS>BOND
     1    16    17    1
     2    17     9    1
     3     9    10   ar
     4    10    11   ar
     5    11    12   ar
     6    12     8    1
     7     8     1    1
     8     1    18    1
     9    18    19    1
    10    19    20    1
    11    19    21    1
    12     1     2    1
    13     2     3    1
    14     3     4    1
    15     4     5    1
    16     5     6    1
    17    12    13   ar
    18    13    14    1
    19    13    15   ar
    20    15     9   ar
    21     6     2    1
    22     5     7    1
