@<TRIPOS>MOLECULE
*****
 59 66 0 0 0
SMALL
GASTEIGER

@<TRIPOS>ATOM
      1 N          64.0246   86.3450   15.7589 N.3     1  UNL1       -0.1862
      2 C          64.1936   84.8818   16.0424 C.3     1  UNL1        0.1775
      3 C          63.9838   83.8768   14.9488 C.2     1  UNL1        0.2452
      4 O          64.1529   82.4135   15.2324 O.2     1  UNL1       -0.2732
      5 N          63.6050   84.3350   13.5717 N.am    1  UNL1       -0.2541
      6 C          63.3952   83.3300   12.4781 C.3     1  UNL1        0.1577
      7 C          63.0164   83.7882   11.1010 C.2     1  UNL1        0.2445
      8 O          62.8066   82.7832   10.0074 O.2     1  UNL1       -0.2731
      9 N          62.8474   85.2515   10.8174 N.am    1  UNL1       -0.2705
     10 C          63.0571   86.2565   11.9110 C.3     1  UNL1        0.1359
     11 C          63.4360   85.7982   13.2882 C.3     1  UNL1        0.1908
     12 N          63.6458   86.8032   14.3818 N.am    1  UNL1       -0.1863
     13 C          63.4767   88.2665   14.0982 C.2     1  UNL1        0.3191
     14 O          63.0979   88.7247   12.7211 O.2     1  UNL1       -0.2512
     15 N          63.6865   89.2715   15.1918 N.am    1  UNL1       -0.2836
     16 H          63.9351   88.9707   16.0956 H       1  UNL1        0.1513
     17 C          64.2344   87.3500   16.8525 C.3     1  UNL1        0.1188
     18 C          62.4213   86.7083   18.5991 C.2     1  UNL1       -0.0034
     19 C          63.0912   87.7406   17.7415 C.2     1  UNL1       -0.0071
     20 C          63.5643   81.8668   12.7616 C.3     1  UNL1        0.0556
     21 C          62.3902   81.0498   13.2133 C.ar    1  UNL1       -0.0198
     22 C          62.4399   79.5532   13.1263 C.ar    1  UNL1       -0.0011
     23 C          61.2658   78.7362   13.5780 C.ar    1  UNL1        0.0363
     24 C          60.0420   79.4158   14.1166 C.ar    1  UNL1        0.1337
     25 O          58.8678   78.5989   14.5683 O.3     1  UNL1       -0.5055
     26 C          59.9921   80.9125   14.2036 C.ar    1  UNL1        0.0363
     27 C          61.1662   81.7295   13.7519 C.ar    1  UNL1       -0.0011
     28 H          58.8989   77.6640   14.5139 H       1  UNL1        0.2922
     29 C          62.4685   85.7097    9.4403 C.3     1  UNL1        0.1217
     30 C          61.9198   87.0904    9.2337 C.ar    1  UNL1        0.0135
     31 C          62.3766   88.2180   10.1110 C.ar    1  UNL1       -0.0012
     32 C          61.8279   89.5987    9.9044 C.ar    1  UNL1       -0.0002
     33 C          60.8224   89.8517    8.8205 C.ar    1  UNL1        0.0016
     34 C          60.3656   88.7240    7.9432 C.ar    1  UNL1        0.0214
     35 C          59.3931   88.6704    6.8024 C.ar    1  UNL1        0.0721
     36 C          59.3407   87.2566    6.3040 C.ar    1  UNL1        0.0805
     37 N          60.2809   86.4365    7.1367 N.ar    1  UNL1       -0.3241
     38 C          60.5418   84.9674    6.9832 C.3     1  UNL1        0.1305
     39 C          60.9143   87.3434    8.1498 C.ar    1  UNL1        0.0577
     40 C          58.6103   89.8275    6.2561 C.2     1  UNL1        0.2506
     41 O          57.1849   90.0336    6.6754 O.2     1  UNL1       -0.2699
     42 N          59.2529   90.7785    5.2903 N.am    1  UNL1       -0.2732
     43 C          58.8058   92.0074    4.5556 C.3     1  UNL1        0.1114
     44 C          60.1618   92.1234    3.9246 C.3     1  UNL1        0.0975
     45 C          60.6088   90.8945    4.6593 C.3     1  UNL1        0.1114
     46 N          60.8044   93.0744    2.9589 N.3     1  UNL1       -0.2686
     47 C          60.0825   94.3213    2.5416 C.3     1  UNL1        0.0897
     48 C          60.7252   95.2723    1.5758 C.3     1  UNL1        0.0897
     49 N          62.0896   94.9764    1.0274 N.3     1  UNL1       -0.2691
     50 C          62.7323   95.9274    0.0616 C.3     1  UNL1        0.0897
     51 C          62.8114   93.7295    1.4447 C.3     1  UNL1        0.0897
     52 C          62.1688   92.7785    2.4104 C.3     1  UNL1        0.0897
     53 C          63.5175   90.7347   14.9083 C.3     1  UNL1        0.1177
     54 C          64.5628   91.4726   14.1255 C.ar    1  UNL1       -0.0025
     55 C          64.3765   91.7009   12.6548 C.ar    1  UNL1       -0.0026
     56 C          65.4219   92.4389   11.8720 C.ar    1  UNL1       -0.0003
     57 C          66.6534   92.9486   12.5600 C.ar    1  UNL1       -0.0000
     58 C          66.8397   92.7203   14.0308 C.ar    1  UNL1       -0.0003
     59 C          65.7944   91.9823   14.8136 C.ar    1  UNL1       -0.0026
@<TRIPOS>BOND
     1    18    19    2
     2    19    17    1
     3    17     1    1
     4     1     2    1
     5     2     3    1
     6     3     4    2
     7     3     5   am
     8     5     6    1
     9     6    20    1
    10    20    21    1
    11    21    22   ar
    12    22    23   ar
    13    23    24   ar
    14    24    25    1
    15    24    26   ar
    16    26    27   ar
    17     6     7    1
    18     7     8    2
    19     7     9   am
    20     9    29    1
    21    29    30    1
    22    30    31   ar
    23    31    32   ar
    24    32    33   ar
    25    33    34   ar
    26    34    35   ar
    27    35    40    1
    28    40    41    2
    29    40    42   am
    30    42    43    1
    31    43    44    1
    32    44    46    1
    33    46    47    1
    34    47    48    1
    35    48    49    1
    36    49    50    1
    37    49    51    1
    38    51    52    1
    39    44    45    1
    40    35    36   ar
    41    36    37   ar
    42    37    38    1
    43    37    39   ar
    44     9    10    1
    45    11    10    1
    46    11    12    1
    47    12    13   am
    48    13    14    2
    49    13    15   am
    50    15    53    1
    51    53    54    1
    52    54    55   ar
    53    55    56   ar
    54    56    57   ar
    55    57    58   ar
    56    58    59   ar
    57    12     1    1
    58    59    54   ar
    59    11     5    1
    60    27    21   ar
    61    39    30   ar
    62    39    34   ar
    63    45    42    1
    64    52    46    1
    65    25    28    1
    66    15    16    1
@<TRIPOS>MOLECULE
*****
 59 66 0 0 0
SMALL
GASTEIGER

@<TRIPOS>ATOM
      1 N          63.4466   86.6029   16.2239 N.3     1  UNL1       -0.1862
      2 C          63.2690   85.1453   16.5301 C.3     1  UNL1        0.1775
      3 C          62.9713   84.1773   15.4236 C.2     1  UNL1        0.2452
      4 O          62.7937   82.7197   15.7299 O.2     1  UNL1       -0.2732
      5 N          62.8513   84.6669   14.0109 N.am    1  UNL1       -0.2541
      6 C          62.5537   83.6989   12.9044 C.3     1  UNL1        0.1577
      7 C          62.4337   84.1885   11.4916 C.2     1  UNL1        0.2445
      8 O          62.1361   83.2204   10.3851 O.2     1  UNL1       -0.2731
      9 N          62.6114   85.6461   11.1853 N.am    1  UNL1       -0.2705
     10 C          62.9090   86.6141   12.2918 C.3     1  UNL1        0.1359
     11 C          63.0290   86.1245   13.7046 C.3     1  UNL1        0.1908
     12 N          63.3266   87.0925   14.8111 N.am    1  UNL1       -0.1863
     13 C          63.5043   88.5502   14.5049 C.2     1  UNL1        0.3191
     14 O          63.3843   89.0397   13.0921 O.2     1  UNL1       -0.2512
     15 N          63.8019   89.5182   15.6114 N.am    1  UNL1       -0.2836
     16 H          63.8807   89.1968   16.5386 H       1  UNL1        0.1513
     17 C          63.7442   87.5709   17.3304 C.3     1  UNL1        0.1188
     18 C          62.6564   87.0510   19.6317 C.2     1  UNL1       -0.0034
     19 C          62.7045   87.8629   18.3714 C.2     1  UNL1       -0.0071
     20 C          62.3760   82.2413   13.2106 C.3     1  UNL1        0.0556
     21 C          62.6765   81.2124   12.1613 C.ar    1  UNL1       -0.0198
     22 C          63.3879   81.6107   10.9023 C.ar    1  UNL1       -0.0011
     23 C          63.6884   80.5818    9.8529 C.ar    1  UNL1        0.0363
     24 C          63.2773   79.1546   10.0626 C.ar    1  UNL1        0.1337
     25 O          63.5778   78.1257    9.0132 O.3     1  UNL1       -0.5055
     26 C          62.5658   78.7562   11.3216 C.ar    1  UNL1        0.0363
     27 C          62.2654   79.7851   12.3710 C.ar    1  UNL1       -0.0011
     28 H          64.0222   78.3745    8.2268 H       1  UNL1        0.2922
     29 C          62.4914   86.1357    9.7726 C.3     1  UNL1        0.1217
     30 C          61.8688   87.4713    9.4920 C.ar    1  UNL1        0.0135
     31 C          62.2110   88.6533   10.3496 C.ar    1  UNL1       -0.0012
     32 C          61.5884   89.9889   10.0690 C.ar    1  UNL1       -0.0002
     33 C          60.6237   90.1423    8.9308 C.ar    1  UNL1        0.0016
     34 C          60.2815   88.9602    8.0731 C.ar    1  UNL1        0.0214
     35 C          59.3714   88.8081    6.8905 C.ar    1  UNL1        0.0721
     36 C          59.4316   87.3786    6.4402 C.ar    1  UNL1        0.0805
     37 N          60.3787   86.6472    7.3445 N.ar    1  UNL1       -0.3241
     38 C          60.7377   85.1935    7.2553 C.3     1  UNL1        0.1305
     39 C          60.9040   87.6247    8.3537 C.ar    1  UNL1        0.0577
     40 C          58.5461   89.8948    6.2675 C.2     1  UNL1        0.2506
     41 O          57.0978   90.0383    6.6306 O.2     1  UNL1       -0.2699
     42 N          59.1691   90.8379    5.2814 N.am    1  UNL1       -0.2732
     43 C          58.6815   92.0070    4.4781 C.3     1  UNL1        0.1114
     44 C          60.0502   92.1717    3.8869 C.3     1  UNL1        0.0975
     45 C          60.5379   91.0026    4.6902 C.3     1  UNL1        0.1114
     46 N          60.6733   93.1149    2.9008 N.3     1  UNL1       -0.2686
     47 C          61.9876   92.7734    2.2638 C.3     1  UNL1        0.0897
     48 C          62.6106   93.7166    1.2777 C.3     1  UNL1        0.0897
     49 N          61.9193   95.0011    0.9287 N.3     1  UNL1       -0.2691
     50 C          62.5422   95.9443   -0.0574 C.3     1  UNL1        0.0897
     51 C          60.6049   95.3426    1.5657 C.3     1  UNL1        0.0897
     52 C          59.9819   94.3995    2.5518 C.3     1  UNL1        0.0897
     53 C          63.9796   90.9758   15.3051 C.3     1  UNL1        0.1177
     54 C          65.3580   91.5489   15.1592 C.ar    1  UNL1       -0.0025
     55 C          65.9581   92.3526   16.2745 C.ar    1  UNL1       -0.0026
     56 C          67.3366   92.9258   16.1285 C.ar    1  UNL1       -0.0003
     57 C          68.1150   92.6952   14.8672 C.ar    1  UNL1       -0.0000
     58 C          67.5149   91.8915   13.7518 C.ar    1  UNL1       -0.0003
     59 C          66.1365   91.3183   13.8978 C.ar    1  UNL1       -0.0026
@<TRIPOS>BOND
     1    18    19    2
     2    19    17    1
     3    17     1    1
     4     1     2    1
     5     2     3    1
     6     3     4    2
     7     3     5   am
     8     5     6    1
     9     6    20    1
    10    20    21    1
    11    21    22   ar
    12    22    23   ar
    13    23    24   ar
    14    24    25    1
    15    24    26   ar
    16    26    27   ar
    17     6     7    1
    18     7     8    2
    19     7     9   am
    20     9    29    1
    21    29    30    1
    22    30    31   ar
    23    31    32   ar
    24    32    33   ar
    25    33    34   ar
    26    34    35   ar
    27    35    40    1
    28    40    41    2
    29    40    42   am
    30    42    43    1
    31    43    44    1
    32    44    46    1
    33    46    47    1
    34    47    48    1
    35    48    49    1
    36    49    50    1
    37    49    51    1
    38    51    52    1
    39    44    45    1
    40    35    36   ar
    41    36    37   ar
    42    37    38    1
    43    37    39   ar
    44     9    10    1
    45    11    10    1
    46    11    12    1
    47    12    13   am
    48    13    14    2
    49    13    15   am
    50    15    53    1
    51    53    54    1
    52    54    55   ar
    53    55    56   ar
    54    56    57   ar
    55    57    58   ar
    56    58    59   ar
    57    12     1    1
    58    59    54   ar
    59    11     5    1
    60    27    21   ar
    61    39    30   ar
    62    39    34   ar
    63    45    42    1
    64    52    46    1
    65    25    28    1
    66    15    16    1
