@<TRIPOS>MOLECULE
*****
 25 28 0 0 0
SMALL
GASTEIGER

@<TRIPOS>ATOM
      1 C          63.8863   89.5404   13.4518 C.ar    1  UNL1        0.0183
      2 C          63.0260   89.7106   12.2348 C.ar    1  UNL1        0.0996
      3 N          62.5934   88.3487   11.7788 N.ar    1  UNL1       -0.2077
      4 C          63.1863   87.3367   12.7139 C.ar    1  UNL1        0.0825
      5 C          63.1017   85.8398   12.7575 C.ar    1  UNL1        0.0190
      6 C          63.8163   85.0793   13.8351 C.ar    1  UNL1        0.0015
      7 C          64.6153   85.8159   14.8690 C.ar    1  UNL1        0.0001
      8 C          64.6998   87.3128   14.8254 C.ar    1  UNL1        0.0015
      9 C          63.9853   88.0732   13.7479 C.ar    1  UNL1        0.0188
     10 C          66.9089   93.6692   14.7544 C.3     1  UNL1        0.0902
     11 N          65.9232   92.5415   14.8339 N.3     1  UNL1       -0.2632
     12 C          65.1374   92.1410   16.0473 C.3     1  UNL1        0.1107
     13 C          64.2787   90.9681   15.6772 C.2     1  UNL1        0.0490
     14 CL         63.3313   90.2465   16.5892 Cl      1  UNL1       -0.0858
     15 C          64.5338   90.6436   14.2351 C.2     1  UNL1        0.0033
     16 C          65.5501   91.6159   13.7140 C.3     1  UNL1        0.1001
     17 S          61.7211   88.0509   10.5954 S.O2    1  UNL1        0.0860
     18 O          60.6321   87.5848   11.5155 O.2     1  UNL1       -0.1476
     19 O          62.8102   88.5171    9.6753 O.2     1  UNL1       -0.1476
     20 C          60.8488   87.7532    9.4120 C.ar    1  UNL1        0.1277
     21 C          60.1283   88.8672    8.7121 C.ar    1  UNL1        0.0204
     22 C          59.2561   88.5694    7.5287 C.ar    1  UNL1        0.0014
     23 C          59.1043   87.1576    7.0451 C.ar    1  UNL1        0.0001
     24 C          59.8248   86.0436    7.7450 C.ar    1  UNL1        0.0014
     25 C          60.6971   86.3414    8.9285 C.ar    1  UNL1        0.0204
@<TRIPOS>BOND
     1    10    11    1
     2    11    12    1
     3    12    13    1
     4    13    14    1
     5    13    15    2
     6    15     1    1
     7     1     2   ar
     8     2     3   ar
     9     3    17    1
    10    17    18    2
    11    17    19    2
    12    17    20    1
    13    20    21   ar
    14    21    22   ar
    15    22    23   ar
    16    23    24   ar
    17    24    25   ar
    18     3     4   ar
    19     4     5   ar
    20     5     6   ar
    21     6     7   ar
    22     7     8   ar
    23     8     9   ar
    24    15    16    1
    25    16    11    1
    26     9     1   ar
    27    25    20   ar
    28     9     4   ar
@<TRIPOS>MOLECULE
*****
 25 28 0 0 0
SMALL
GASTEIGER

@<TRIPOS>ATOM
      1 C          63.6196   88.6137   13.1286 C.ar    1  UNL1        0.0183
      2 C          63.7446   87.1955   13.6008 C.ar    1  UNL1        0.0996
      3 N          63.0272   86.3157   12.6204 N.ar    1  UNL1       -0.2077
      4 C          62.4589   87.1901   11.5422 C.ar    1  UNL1        0.0825
      5 C          61.6553   86.8766   10.3151 C.ar    1  UNL1        0.0190
      6 C          61.2179   87.9834    9.4021 C.ar    1  UNL1        0.0015
      7 C          61.5840   89.4037    9.7162 C.ar    1  UNL1        0.0001
      8 C          62.3876   89.7172   10.9433 C.ar    1  UNL1        0.0015
      9 C          62.8250   88.6104   11.8564 C.ar    1  UNL1        0.0188
     10 C          66.2376   93.1138   14.0097 C.3     1  UNL1        0.0902
     11 N          65.3926   91.8915   14.2142 N.3     1  UNL1       -0.2632
     12 C          64.7389   91.4763   15.4988 C.3     1  UNL1        0.1107
     13 C          63.9952   90.1979   15.2486 C.2     1  UNL1        0.0490
     14 CL         63.1976   89.4295   16.2601 Cl      1  UNL1       -0.0858
     15 C          64.1892   89.8230   13.8092 C.2     1  UNL1        0.0033
     16 C          65.0528   90.8696   13.1700 C.3     1  UNL1        0.1001
     17 S          62.9004   84.8233   12.7034 S.O2    1  UNL1        0.0860
     18 O          63.4799   84.6974   11.3257 O.2     1  UNL1       -0.1476
     19 O          62.3209   84.9493   14.0812 O.2     1  UNL1       -0.1476
     20 C          62.7736   83.3310   12.7866 C.ar    1  UNL1        0.1277
     21 C          62.3240   82.6864   14.0642 C.ar    1  UNL1        0.0204
     22 C          62.1972   81.1942   14.1473 C.ar    1  UNL1        0.0014
     23 C          62.5199   80.3463   12.9527 C.ar    1  UNL1        0.0001
     24 C          62.9695   80.9909   11.6750 C.ar    1  UNL1        0.0014
     25 C          63.0963   82.4832   11.5920 C.ar    1  UNL1        0.0204
@<TRIPOS>BOND
     1    10    11    1
     2    11    12    1
     3    12    13    1
     4    13    14    1
     5    13    15    2
     6    15     1    1
     7     1     2   ar
     8     2     3   ar
     9     3    17    1
    10    17    18    2
    11    17    19    2
    12    17    20    1
    13    20    21   ar
    14    21    22   ar
    15    22    23   ar
    16    23    24   ar
    17    24    25   ar
    18     3     4   ar
    19     4     5   ar
    20     5     6   ar
    21     6     7   ar
    22     7     8   ar
    23     8     9   ar
    24    15    16    1
    25    16    11    1
    26     9     1   ar
    27    25    20   ar
    28     9     4   ar
@<TRIPOS>MOLECULE
*****
 25 28 0 0 0
SMALL
GASTEIGER

@<TRIPOS>ATOM
      1 C          63.3260   88.7414   12.4649 C.ar    1  UNL1        0.0183
      2 C          63.6240   87.3503   12.9402 C.ar    1  UNL1        0.0996
      3 N          62.7498   86.4017   12.1746 N.ar    1  UNL1       -0.2077
      4 C          61.9115   87.2066   11.2262 C.ar    1  UNL1        0.0825
      5 C          60.8700   86.8096   10.2225 C.ar    1  UNL1        0.0190
      6 C          60.1846   87.8587    9.3981 C.ar    1  UNL1        0.0015
      7 C          60.5407   89.3047    9.5775 C.ar    1  UNL1        0.0001
      8 C          61.5822   89.7017   10.5812 C.ar    1  UNL1        0.0015
      9 C          62.2677   88.6526   11.4056 C.ar    1  UNL1        0.0188
     10 C          65.5860   92.3164   15.6259 C.3     1  UNL1        0.0902
     11 N          65.0116   91.6436   14.4146 N.3     1  UNL1       -0.2632
     12 C          64.9246   92.2317   13.0374 C.3     1  UNL1        0.1107
     13 C          64.2826   91.2161   12.1394 C.2     1  UNL1        0.0490
     14 CL         64.0000   91.3864   10.6761 Cl      1  UNL1       -0.0858
     15 C          63.9728   90.0003   12.9616 C.2     1  UNL1        0.0033
     16 C          64.4234   90.2646   14.3677 C.3     1  UNL1        0.1001
     17 S          62.7192   84.9101   12.3302 S.O2    1  UNL1        0.0860
     18 O          62.3398   85.0683   13.7727 O.2     1  UNL1       -0.1476
     19 O          63.0986   84.7519   10.8876 O.2     1  UNL1       -0.1476
     20 C          62.6887   83.4185   12.4856 C.ar    1  UNL1        0.1277
     21 C          63.0341   82.5359   11.3230 C.ar    1  UNL1        0.0204
     22 C          63.0035   81.0444   11.4785 C.ar    1  UNL1        0.0014
     23 C          62.6275   80.4352   12.7967 C.ar    1  UNL1        0.0001
     24 C          62.2821   81.3178   13.9593 C.ar    1  UNL1        0.0014
     25 C          62.3127   82.8094   13.8038 C.ar    1  UNL1        0.0204
@<TRIPOS>BOND
     1    10    11    1
     2    11    12    1
     3    12    13    1
     4    13    14    1
     5    13    15    2
     6    15     1    1
     7     1     2   ar
     8     2     3   ar
     9     3    17    1
    10    17    18    2
    11    17    19    2
    12    17    20    1
    13    20    21   ar
    14    21    22   ar
    15    22    23   ar
    16    23    24   ar
    17    24    25   ar
    18     3     4   ar
    19     4     5   ar
    20     5     6   ar
    21     6     7   ar
    22     7     8   ar
    23     8     9   ar
    24    15    16    1
    25    16    11    1
    26     9     1   ar
    27    25    20   ar
    28     9     4   ar
@<TRIPOS>MOLECULE
*****
 25 28 0 0 0
SMALL
GASTEIGER

@<TRIPOS>ATOM
      1 C          62.9992   85.3315   12.3009 C.ar    1  UNL1        0.0183
      2 C          63.6345   86.1715   13.3689 C.ar    1  UNL1        0.0996
      3 N          63.4198   87.6129   13.0138 N.ar    1  UNL1       -0.2077
      4 C          62.6519   87.6638   11.7263 C.ar    1  UNL1        0.0825
      5 C          62.1558   88.8119   10.8982 C.ar    1  UNL1        0.0190
      6 C          61.3996   88.5499    9.6295 C.ar    1  UNL1        0.0015
      7 C          61.1396   87.1398    9.1889 C.ar    1  UNL1        0.0001
      8 C          61.6358   85.9917   10.0170 C.ar    1  UNL1        0.0015
      9 C          62.3919   86.2537   11.2857 C.ar    1  UNL1        0.0188
     10 C          62.2376   80.2789   13.6323 C.3     1  UNL1        0.0902
     11 N          62.6252   81.5099   12.8679 N.3     1  UNL1       -0.2632
     12 C          63.2519   81.5409   11.5054 C.3     1  UNL1        0.1107
     13 C          63.4682   82.9762   11.1272 C.2     1  UNL1        0.0490
     14 CL         64.0716   83.4688    9.8452 Cl      1  UNL1       -0.0858
     15 C          62.9753   83.8323   12.2559 C.2     1  UNL1        0.0033
     16 C          62.4543   82.9261   13.3316 C.3     1  UNL1        0.1001
     17 S          63.8905   88.7959   13.8069 S.O2    1  UNL1        0.0860
     18 O          63.8633   89.6385   12.5663 O.2     1  UNL1       -0.1476
     19 O          63.9178   87.9533   15.0476 O.2     1  UNL1       -0.1476
     20 C          64.3612   89.9789   14.6001 C.ar    1  UNL1        0.1277
     21 C          65.5562   90.7614   14.1424 C.ar    1  UNL1        0.0204
     22 C          66.0268   91.9443   14.9356 C.ar    1  UNL1        0.0014
     23 C          65.3025   92.3447   16.1866 C.ar    1  UNL1        0.0001
     24 C          64.1075   91.5621   16.6444 C.ar    1  UNL1        0.0014
     25 C          63.6369   90.3792   15.8511 C.ar    1  UNL1        0.0204
@<TRIPOS>BOND
     1    10    11    1
     2    11    12    1
     3    12    13    1
     4    13    14    1
     5    13    15    2
     6    15     1    1
     7     1     2   ar
     8     2     3   ar
     9     3    17    1
    10    17    18    2
    11    17    19    2
    12    17    20    1
    13    20    21   ar
    14    21    22   ar
    15    22    23   ar
    16    23    24   ar
    17    24    25   ar
    18     3     4   ar
    19     4     5   ar
    20     5     6   ar
    21     6     7   ar
    22     7     8   ar
    23     8     9   ar
    24    15    16    1
    25    16    11    1
    26     9     1   ar
    27    25    20   ar
    28     9     4   ar
@<TRIPOS>MOLECULE
*****
 25 28 0 0 0
SMALL
GASTEIGER

@<TRIPOS>ATOM
      1 C          64.0514   88.4335   14.2263 C.ar    1  UNL1        0.0183
      2 C          64.0570   87.2741   13.2746 C.ar    1  UNL1        0.0996
      3 N          63.5942   86.0587   14.0220 N.ar    1  UNL1       -0.2077
      4 C          63.3025   86.4669   15.4356 C.ar    1  UNL1        0.0825
      5 C          62.8162   85.6918   16.6241 C.ar    1  UNL1        0.0190
      6 C          62.6124   86.3844   17.9389 C.ar    1  UNL1        0.0015
      7 C          62.8950   87.8521   18.0652 C.ar    1  UNL1        0.0001
      8 C          63.3813   88.6272   16.8767 C.ar    1  UNL1        0.0015
      9 C          63.5851   87.9346   15.5619 C.ar    1  UNL1        0.0188
     10 C          66.3306   93.1913   14.4469 C.3     1  UNL1        0.0902
     11 N          65.4909   92.0311   14.0012 N.3     1  UNL1       -0.2632
     12 C          64.6017   91.9985   12.7936 C.3     1  UNL1        0.1107
     13 C          63.9542   90.6469   12.7310 C.2     1  UNL1        0.0490
     14 CL         62.9874   90.1802   11.6833 Cl      1  UNL1       -0.0858
     15 C          64.4433   89.8441   13.8999 C.2     1  UNL1        0.0033
     16 C          65.3930   90.6995   14.6848 C.3     1  UNL1        0.1001
     17 S          63.4486   84.6775   13.4552 S.O2    1  UNL1        0.0860
     18 O          62.1722   85.0880   12.7829 O.2     1  UNL1       -0.1476
     19 O          64.7250   84.2670   14.1277 O.2     1  UNL1       -0.1476
     20 C          63.3030   83.2963   12.8886 C.ar    1  UNL1        0.1277
     21 C          62.9715   82.1459   13.7922 C.ar    1  UNL1        0.0204
     22 C          62.8260   80.7648   13.2255 C.ar    1  UNL1        0.0014
     23 C          63.0119   80.5340   11.7550 C.ar    1  UNL1        0.0001
     24 C          63.3434   81.6844   10.8513 C.ar    1  UNL1        0.0014
     25 C          63.4889   83.0656   11.4181 C.ar    1  UNL1        0.0204
@<TRIPOS>BOND
     1    10    11    1
     2    11    12    1
     3    12    13    1
     4    13    14    1
     5    13    15    2
     6    15     1    1
     7     1     2   ar
     8     2     3   ar
     9     3    17    1
    10    17    18    2
    11    17    19    2
    12    17    20    1
    13    20    21   ar
    14    21    22   ar
    15    22    23   ar
    16    23    24   ar
    17    24    25   ar
    18     3     4   ar
    19     4     5   ar
    20     5     6   ar
    21     6     7   ar
    22     7     8   ar
    23     8     9   ar
    24    15    16    1
    25    16    11    1
    26     9     1   ar
    27    25    20   ar
    28     9     4   ar
@<TRIPOS>MOLECULE
*****
 25 28 0 0 0
SMALL
GASTEIGER

@<TRIPOS>ATOM
      1 C          62.3778   87.1009   11.2132 C.ar    1  UNL1        0.0183
      2 C          62.7476   88.4636   11.7196 C.ar    1  UNL1        0.0996
      3 N          63.5275   88.2904   12.9891 N.ar    1  UNL1       -0.2077
      4 C          63.6397   86.8207   13.2674 C.ar    1  UNL1        0.0825
      5 C          64.2971   86.0569   14.3784 C.ar    1  UNL1        0.0190
      6 C          64.2439   84.5579   14.3918 C.ar    1  UNL1        0.0015
      7 C          63.5334   83.8228   13.2942 C.ar    1  UNL1        0.0001
      8 C          62.8760   84.5866   12.1832 C.ar    1  UNL1        0.0015
      9 C          62.9292   86.0856   12.1698 C.ar    1  UNL1        0.0188
     10 C          58.5357   87.0495    7.5917 C.3     1  UNL1        0.0902
     11 N          59.8282   86.7818    8.3041 N.3     1  UNL1       -0.2632
     12 C          60.9489   85.9196    7.8033 C.3     1  UNL1        0.1107
     13 C          62.0403   85.9342    8.8321 C.2     1  UNL1        0.0490
     14 CL         63.3482   85.2055    8.7402 Cl      1  UNL1       -0.0858
     15 C          61.5943   86.8055    9.9687 C.2     1  UNL1        0.0033
     16 C          60.2272   87.3292    9.6424 C.3     1  UNL1        0.1001
     17 S          64.0955   89.3933   13.8324 S.O2    1  UNL1        0.0860
     18 O          64.2979   90.2288   12.6033 O.2     1  UNL1       -0.1476
     19 O          63.8930   88.5577   15.0616 O.2     1  UNL1       -0.1476
     20 C          64.6634   90.4961   14.6757 C.ar    1  UNL1        0.1277
     21 C          63.9281   90.9605   15.8978 C.ar    1  UNL1        0.0204
     22 C          64.4960   92.0633   16.7411 C.ar    1  UNL1        0.0014
     23 C          65.7995   92.7018   16.3623 C.ar    1  UNL1        0.0001
     24 C          66.5349   92.2374   15.1402 C.ar    1  UNL1        0.0014
     25 C          65.9669   91.1345   14.2969 C.ar    1  UNL1        0.0204
@<TRIPOS>BOND
     1    10    11    1
     2    11    12    1
     3    12    13    1
     4    13    14    1
     5    13    15    2
     6    15     1    1
     7     1     2   ar
     8     2     3   ar
     9     3    17    1
    10    17    18    2
    11    17    19    2
    12    17    20    1
    13    20    21   ar
    14    21    22   ar
    15    22    23   ar
    16    23    24   ar
    17    24    25   ar
    18     3     4   ar
    19     4     5   ar
    20     5     6   ar
    21     6     7   ar
    22     7     8   ar
    23     8     9   ar
    24    15    16    1
    25    16    11    1
    26     9     1   ar
    27    25    20   ar
    28     9     4   ar
@<TRIPOS>MOLECULE
*****
 25 28 0 0 0
SMALL
GASTEIGER

@<TRIPOS>ATOM
      1 C          63.7932   89.5479   13.4450 C.ar    1  UNL1        0.0183
      2 C          62.9335   89.7192   12.2278 C.ar    1  UNL1        0.0996
      3 N          62.5426   88.3553   11.7409 N.ar    1  UNL1       -0.2077
      4 C          63.1607   87.3412   12.6572 C.ar    1  UNL1        0.0825
      5 C          63.1196   85.8418   12.6685 C.ar    1  UNL1        0.0190
      6 C          63.8514   85.0796   13.7331 C.ar    1  UNL1        0.0015
      7 C          64.6243   85.8167   14.7863 C.ar    1  UNL1        0.0001
      8 C          64.6654   87.3160   14.7750 C.ar    1  UNL1        0.0015
      9 C          63.9336   88.0783   13.7104 C.ar    1  UNL1        0.0188
     10 C          64.9474   92.7964   17.4445 C.3     1  UNL1        0.0902
     11 N          64.9356   92.1457   16.0931 N.3     1  UNL1       -0.2632
     12 C          65.7577   92.5587   14.9084 C.3     1  UNL1        0.1107
     13 C          65.4298   91.6359   13.7722 C.2     1  UNL1        0.0490
     14 CL         66.0227   91.6875   12.3953 Cl      1  UNL1       -0.0858
     15 C          64.4050   90.6525   14.2547 C.2     1  UNL1        0.0033
     16 C          64.0996   90.9675   15.6891 C.3     1  UNL1        0.1001
     17 S          61.6843   88.0577   10.5472 S.O2    1  UNL1        0.0860
     18 O          62.6889   88.7281    9.6578 O.2     1  UNL1       -0.1476
     19 O          60.6797   87.3873   11.4368 O.2     1  UNL1       -0.1476
     20 C          60.8259   87.7601    9.3536 C.ar    1  UNL1        0.1277
     21 C          60.6627   86.3460    8.8810 C.ar    1  UNL1        0.0204
     22 C          59.8044   86.0485    7.6874 C.ar    1  UNL1        0.0014
     23 C          59.1091   87.1651    6.9664 C.ar    1  UNL1        0.0001
     24 C          59.2724   88.5793    7.4391 C.ar    1  UNL1        0.0014
     25 C          60.1308   88.8768    8.6327 C.ar    1  UNL1        0.0204
@<TRIPOS>BOND
     1    10    11    1
     2    11    12    1
     3    12    13    1
     4    13    14    1
     5    13    15    2
     6    15     1    1
     7     1     2   ar
     8     2     3   ar
     9     3    17    1
    10    17    18    2
    11    17    19    2
    12    17    20    1
    13    20    21   ar
    14    21    22   ar
    15    22    23   ar
    16    23    24   ar
    17    24    25   ar
    18     3     4   ar
    19     4     5   ar
    20     5     6   ar
    21     6     7   ar
    22     7     8   ar
    23     8     9   ar
    24    15    16    1
    25    16    11    1
    26     9     1   ar
    27    25    20   ar
    28     9     4   ar
@<TRIPOS>MOLECULE
*****
 25 28 0 0 0
SMALL
GASTEIGER

@<TRIPOS>ATOM
      1 C          63.0248   85.7989   12.3391 C.ar    1  UNL1        0.0183
      2 C          63.7269   86.6016   13.3940 C.ar    1  UNL1        0.0996
      3 N          63.5351   88.0547   13.0750 N.ar    1  UNL1       -0.2077
      4 C          62.7144   88.1501   11.8230 C.ar    1  UNL1        0.0825
      5 C          62.2136   89.3263   11.0384 C.ar    1  UNL1        0.0190
      6 C          61.3974   89.1083    9.7989 C.ar    1  UNL1        0.0015
      7 C          61.0820   87.7141    9.3441 C.ar    1  UNL1        0.0001
      8 C          61.5829   86.5379   10.1287 C.ar    1  UNL1        0.0015
      9 C          62.3990   86.7559   11.3682 C.ar    1  UNL1        0.0188
     10 C          63.2432   80.8436   10.5286 C.3     1  UNL1        0.0902
     11 N          63.0602   82.0243   11.4354 N.3     1  UNL1       -0.2632
     12 C          62.6594   81.9728   12.8800 C.3     1  UNL1        0.1107
     13 C          62.5973   83.3805   13.3943 C.2     1  UNL1        0.0490
     14 CL         62.2362   83.7940   14.7903 Cl      1  UNL1       -0.0858
     15 C          62.9598   84.3020   12.2676 C.2     1  UNL1        0.0033
     16 C          63.2458   83.4639   11.0571 C.3     1  UNL1        0.1001
     17 S          64.0700   89.2097   13.8686 S.O2    1  UNL1        0.0860
     18 O          63.9255   88.4102   15.1295 O.2     1  UNL1       -0.1476
     19 O          64.2145   90.0092   12.6077 O.2     1  UNL1       -0.1476
     20 C          64.6049   90.3647   14.6623 C.ar    1  UNL1        0.1277
     21 C          63.8708   90.8420   15.8802 C.ar    1  UNL1        0.0204
     22 C          64.4057   91.9970   16.6737 C.ar    1  UNL1        0.0014
     23 C          65.6749   92.6748   16.2493 C.ar    1  UNL1        0.0001
     24 C          66.4089   92.1975   15.0314 C.ar    1  UNL1        0.0014
     25 C          65.8740   91.0425   14.2379 C.ar    1  UNL1        0.0204
@<TRIPOS>BOND
     1    10    11    1
     2    11    12    1
     3    12    13    1
     4    13    14    1
     5    13    15    2
     6    15     1    1
     7     1     2   ar
     8     2     3   ar
     9     3    17    1
    10    17    18    2
    11    17    19    2
    12    17    20    1
    13    20    21   ar
    14    21    22   ar
    15    22    23   ar
    16    23    24   ar
    17    24    25   ar
    18     3     4   ar
    19     4     5   ar
    20     5     6   ar
    21     6     7   ar
    22     7     8   ar
    23     8     9   ar
    24    15    16    1
    25    16    11    1
    26     9     1   ar
    27    25    20   ar
    28     9     4   ar
@<TRIPOS>MOLECULE
*****
 25 28 0 0 0
SMALL
GASTEIGER

@<TRIPOS>ATOM
      1 C          62.4977   86.9537   11.2317 C.ar    1  UNL1        0.0183
      2 C          62.8351   88.3311   11.7206 C.ar    1  UNL1        0.0996
      3 N          63.5519   88.1950   13.0312 N.ar    1  UNL1       -0.2077
      4 C          63.6575   86.7336   13.3523 C.ar    1  UNL1        0.0825
      5 C          64.2627   86.0024   14.5137 C.ar    1  UNL1        0.0190
      6 C          64.2164   84.5039   14.5629 C.ar    1  UNL1        0.0015
      7 C          63.5648   83.7367   13.4508 C.ar    1  UNL1        0.0001
      8 C          62.9596   84.4680   12.2894 C.ar    1  UNL1        0.0015
      9 C          63.0059   85.9664   12.2401 C.ar    1  UNL1        0.0188
     10 C          61.3340   84.8911    6.5124 C.3     1  UNL1        0.0902
     11 N          61.2434   85.6738    7.7887 N.3     1  UNL1       -0.2632
     12 C          60.0991   86.5488    8.2071 C.3     1  UNL1        0.1107
     13 C          60.4297   87.1348    9.5478 C.2     1  UNL1        0.0490
     14 CL         59.5636   88.0695   10.3392 Cl      1  UNL1       -0.0858
     15 C          61.7783   86.6219    9.9580 C.2     1  UNL1        0.0033
     16 C          62.2811   85.7190    8.8709 C.3     1  UNL1        0.1001
     17 S          64.0718   89.3225   13.8730 S.O2    1  UNL1        0.0860
     18 O          63.8218   88.5135   15.1110 O.2     1  UNL1       -0.1476
     19 O          64.3219   90.1315   12.6349 O.2     1  UNL1       -0.1476
     20 C          64.5918   90.4500   14.7147 C.ar    1  UNL1        0.1277
     21 C          63.8389   90.8819   15.9380 C.ar    1  UNL1        0.0204
     22 C          64.3588   92.0093   16.7796 C.ar    1  UNL1        0.0014
     23 C          65.6319   92.7050   16.3979 C.ar    1  UNL1        0.0001
     24 C          66.3848   92.2730   15.1746 C.ar    1  UNL1        0.0014
     25 C          65.8648   91.1455   14.3330 C.ar    1  UNL1        0.0204
@<TRIPOS>BOND
     1    10    11    1
     2    11    12    1
     3    12    13    1
     4    13    14    1
     5    13    15    2
     6    15     1    1
     7     1     2   ar
     8     2     3   ar
     9     3    17    1
    10    17    18    2
    11    17    19    2
    12    17    20    1
    13    20    21   ar
    14    21    22   ar
    15    22    23   ar
    16    23    24   ar
    17    24    25   ar
    18     3     4   ar
    19     4     5   ar
    20     5     6   ar
    21     6     7   ar
    22     7     8   ar
    23     8     9   ar
    24    15    16    1
    25    16    11    1
    26     9     1   ar
    27    25    20   ar
    28     9     4   ar
