@<TRIPOS>MOLECULE
*****
 33 35 0 0 0
SMALL
GASTEIGER

@<TRIPOS>ATOM
      1 C          64.0974   90.6862   12.6838 C.3     1  UNL1        0.2669
      2 N          65.2420   91.1875   13.5137 N.2     1  UNL1       -0.0890
      3 C          65.8379   92.3727   12.8136 C.2     1  UNL1        0.3741
      4 N          67.0052   93.1843   13.2920 N.pl3   1  UNL1       -0.2512
      5 N          65.0616   92.6040   11.5511 N.am    1  UNL1       -0.1416
      6 C          65.3163   93.6873   10.5454 C.3     1  UNL1        0.2160
      7 C          63.9859   91.5616   11.4709 C.2     1  UNL1        0.3314
      8 O          62.9760   91.4197   10.3709 O.2     1  UNL1       -0.2520
      9 H          67.4516   92.9530   14.1385 H       1  UNL1        0.2412
     10 H          67.3248   93.9482   12.7596 H       1  UNL1        0.2412
     11 C          61.9758   88.1509   10.4881 C.ar    1  UNL1        0.0689
     12 C          63.1483   88.8665   11.0907 C.ar    1  UNL1        0.0103
     13 C          62.9248   89.9706   12.0812 C.ar    1  UNL1        0.0281
     14 C          61.5289   90.3592   12.4690 C.ar    1  UNL1        0.0021
     15 C          60.3565   89.6436   11.8663 C.ar    1  UNL1        0.0301
     16 C          60.5799   88.5395   10.8759 C.ar    1  UNL1        0.1477
     17 F          59.4074   87.8239   10.2732 F       1  UNL1       -0.2035
     18 C          62.4227   85.9427    8.5072 C.1     1  UNL1       -0.0864
     19 C          62.1993   87.0468    9.4976 C.1     1  UNL1       -0.0621
     20 C          62.6461   84.8385    7.5168 C.3     1  UNL1        0.0764
     21 C          62.0994   84.1896    5.0612 C.3     1  UNL1        0.0011
     22 C          61.6404   84.5890    6.4322 C.3     1  UNL1        0.0140
     23 C          63.9638   89.6612   13.7707 C.ar    1  UNL1        0.0272
     24 C          63.5553   90.0812   15.1516 C.ar    1  UNL1        0.0029
     25 C          63.4217   89.0561   16.2386 C.ar    1  UNL1        0.0366
     26 C          63.6965   87.6110   15.9446 C.ar    1  UNL1        0.1402
     27 C          64.1050   87.1911   14.5638 C.ar    1  UNL1        0.0121
     28 C          64.3798   85.7461   14.2698 C.3     1  UNL1        0.0342
     29 C          64.2386   88.2162   13.4768 C.ar    1  UNL1       -0.0015
     30 O          63.5629   86.5860   17.0316 O.3     1  UNL1       -0.4240
     31 C          62.3550   86.5891   17.9210 C.3     1  UNL1        0.5086
     32 F          62.5083   86.8318   19.3932 F       1  UNL1       -0.1550
     33 F          60.9938   86.3493   17.3380 F       1  UNL1       -0.1550
@<TRIPOS>BOND
     1    21    22    1
     2    22    20    1
     3    20    18    1
     4    18    19    3
     5    19    11    1
     6    11    12   ar
     7    12    13   ar
     8     1    13    1
     9     1    23    1
    10    23    24   ar
    11    24    25   ar
    12    25    26   ar
    13    26    30    1
    14    30    31    1
    15    31    32    1
    16    31    33    1
    17    26    27   ar
    18    27    28    1
    19    27    29   ar
    20     1     2    1
    21     2     3    2
    22     3     4    1
    23     3     5    1
    24     5     6    1
    25     5     7   am
    26     7     8    2
    27    13    14   ar
    28    14    15   ar
    29    15    16   ar
    30    16    17    1
    31    16    11   ar
    32     7     1    1
    33    29    23   ar
    34     4     9    1
    35     4    10    1
@<TRIPOS>MOLECULE
*****
 33 35 0 0 0
SMALL
GASTEIGER

@<TRIPOS>ATOM
      1 C          64.2291   90.0981   13.4413 C.3     1  UNL1        0.2669
      2 N          65.3458   90.2989   14.4225 N.2     1  UNL1       -0.0890
      3 C          66.0288   91.5921   14.0890 C.2     1  UNL1        0.3741
      4 N          67.2007   92.1831   14.8153 N.pl3   1  UNL1       -0.2512
      5 N          65.3342   92.1906   12.9018 N.am    1  UNL1       -0.1416
      6 C          65.6895   93.4850   12.2325 C.3     1  UNL1        0.2160
      7 C          64.2219   91.2672   12.5015 C.2     1  UNL1        0.3314
      8 O          63.2696   91.4762   11.3616 O.2     1  UNL1       -0.2520
      9 H          67.5893   91.7126   15.5878 H       1  UNL1        0.2412
     10 H          67.5811   93.0416   14.5194 H       1  UNL1        0.2412
     11 C          62.0923   88.1172   10.7468 C.ar    1  UNL1        0.0689
     12 C          63.2585   88.5828   11.5673 C.ar    1  UNL1        0.0103
     13 C          63.0629   89.6325   12.6208 C.ar    1  UNL1        0.0281
     14 C          61.7011   90.2167   12.8537 C.ar    1  UNL1        0.0021
     15 C          60.5350   89.7511   12.0332 C.ar    1  UNL1        0.0301
     16 C          60.7306   88.7014   10.9797 C.ar    1  UNL1        0.1477
     17 F          59.5643   88.2358   10.1592 F       1  UNL1       -0.2035
     18 C          62.4836   86.0178    8.6399 C.1     1  UNL1       -0.0864
     19 C          62.2880   87.0675    9.6933 C.1     1  UNL1       -0.0621
     20 C          62.6792   84.9680    7.5864 C.3     1  UNL1        0.0764
     21 C          61.9668   84.1894    5.2124 C.3     1  UNL1        0.0011
     22 C          61.6057   84.7170    6.5693 C.3     1  UNL1        0.0140
     23 C          63.9925   88.8317   14.2096 C.ar    1  UNL1        0.0272
     24 C          64.2238   87.5025   13.5541 C.ar    1  UNL1        0.0029
     25 C          63.9872   86.2361   14.3223 C.ar    1  UNL1        0.0366
     26 C          63.5192   86.2989   15.7462 C.ar    1  UNL1        0.1402
     27 C          63.2879   87.6281   16.4017 C.ar    1  UNL1        0.0121
     28 C          62.8200   87.6909   17.8254 C.3     1  UNL1        0.0342
     29 C          63.5246   88.8945   15.6334 C.ar    1  UNL1       -0.0015
     30 O          63.2826   85.0325   16.5144 O.3     1  UNL1       -0.4240
     31 C          63.2531   83.7150   15.7979 C.3     1  UNL1        0.5086
     32 F          64.5355   83.0035   15.4832 F       1  UNL1       -0.1550
     33 F          61.9410   83.1090   15.3962 F       1  UNL1       -0.1550
@<TRIPOS>BOND
     1    21    22    1
     2    22    20    1
     3    20    18    1
     4    18    19    3
     5    19    11    1
     6    11    12   ar
     7    12    13   ar
     8     1    13    1
     9     1    23    1
    10    23    24   ar
    11    24    25   ar
    12    25    26   ar
    13    26    30    1
    14    30    31    1
    15    31    32    1
    16    31    33    1
    17    26    27   ar
    18    27    28    1
    19    27    29   ar
    20     1     2    1
    21     2     3    2
    22     3     4    1
    23     3     5    1
    24     5     6    1
    25     5     7   am
    26     7     8    2
    27    13    14   ar
    28    14    15   ar
    29    15    16   ar
    30    16    17    1
    31    16    11   ar
    32     7     1    1
    33    29    23   ar
    34     4     9    1
    35     4    10    1
@<TRIPOS>MOLECULE
*****
 33 35 0 0 0
SMALL
GASTEIGER

@<TRIPOS>ATOM
      1 C          62.8387   84.7096   12.9263 C.3     1  UNL1        0.2669
      2 N          62.8773   84.8878   14.4152 N.2     1  UNL1       -0.0890
      3 C          62.6041   83.5559   15.0487 C.2     1  UNL1        0.3741
      4 N          62.5481   83.2746   16.5210 N.pl3   1  UNL1       -0.2512
      5 N          62.3966   82.5544   13.9513 N.am    1  UNL1       -0.1416
      6 C          62.0968   81.0961   14.1336 C.3     1  UNL1        0.2160
      7 C          62.5416   83.2675   12.6396 C.2     1  UNL1        0.3314
      8 O          62.4123   82.6474   11.2799 O.2     1  UNL1       -0.2520
      9 H          62.6986   84.0020   17.1671 H       1  UNL1        0.2412
     10 H          62.3609   82.3627   16.8412 H       1  UNL1        0.2412
     11 C          61.8911   85.8482    9.2445 C.ar    1  UNL1        0.0689
     12 C          61.8666   85.7193   10.7387 C.ar    1  UNL1        0.0103
     13 C          62.8633   84.8385   11.4320 C.ar    1  UNL1        0.0281
     14 C          63.8846   84.0866   10.6311 C.ar    1  UNL1        0.0021
     15 C          63.9092   84.2155    9.1369 C.ar    1  UNL1        0.0301
     16 C          62.9124   85.0963    8.4436 C.ar    1  UNL1        0.1477
     17 F          62.9370   85.2252    6.9493 F       1  UNL1       -0.2035
     18 C          59.8976   87.6098    7.8579 C.1     1  UNL1       -0.0864
     19 C          60.8943   86.7290    8.5512 C.1     1  UNL1       -0.0621
     20 C          58.9008   88.4906    7.1646 C.3     1  UNL1        0.0764
     21 C          58.3729   90.5679    5.6963 C.3     1  UNL1        0.0011
     22 C          59.3712   89.6593    6.3505 C.3     1  UNL1        0.0140
     23 C          63.1409   86.1786   12.9006 C.ar    1  UNL1        0.0272
     24 C          63.9898   86.7886   13.9764 C.ar    1  UNL1        0.0029
     25 C          64.2920   88.2576   13.9508 C.ar    1  UNL1        0.0366
     26 C          63.7454   89.1167   12.8492 C.ar    1  UNL1        0.1402
     27 C          62.8965   88.5067   11.7734 C.ar    1  UNL1        0.0121
     28 C          62.3499   89.3656   10.6719 C.3     1  UNL1        0.0342
     29 C          62.5943   87.0376   11.7991 C.ar    1  UNL1       -0.0015
     30 O          64.0476   90.5857   12.8235 O.3     1  UNL1       -0.4240
     31 C          65.0317   91.1660   13.7955 C.3     1  UNL1        0.5086
     32 F          66.3779   91.6230   13.3171 F       1  UNL1       -0.1550
     33 F          64.6695   91.2894   15.2460 F       1  UNL1       -0.1550
@<TRIPOS>BOND
     1    21    22    1
     2    22    20    1
     3    20    18    1
     4    18    19    3
     5    19    11    1
     6    11    12   ar
     7    12    13   ar
     8     1    13    1
     9     1    23    1
    10    23    24   ar
    11    24    25   ar
    12    25    26   ar
    13    26    30    1
    14    30    31    1
    15    31    32    1
    16    31    33    1
    17    26    27   ar
    18    27    28    1
    19    27    29   ar
    20     1     2    1
    21     2     3    2
    22     3     4    1
    23     3     5    1
    24     5     6    1
    25     5     7   am
    26     7     8    2
    27    13    14   ar
    28    14    15   ar
    29    15    16   ar
    30    16    17    1
    31    16    11   ar
    32     7     1    1
    33    29    23   ar
    34     4     9    1
    35     4    10    1
