@<TRIPOS>MOLECULE
*****
 34 36 0 0 0
SMALL
GASTEIGER

@<TRIPOS>ATOM
      1 C          65.4506   92.4256   13.1532 C.ar    1  UNL1        0.0696
      2 C          66.2213   91.6876   14.2073 C.ar    1  UNL1        0.0057
      3 C          65.7924   90.3123   14.6252 C.ar    1  UNL1       -0.0041
      4 C          64.5928   89.6750   13.9890 C.ar    1  UNL1       -0.0185
      5 C          63.8221   90.4130   12.9349 C.ar    1  UNL1        0.0677
      6 C          64.2509   91.7883   12.5170 C.ar    1  UNL1        0.0095
      7 C          64.1640   88.2997   14.4069 C.3     1  UNL1        0.0257
      8 C          64.1619   87.1793   13.4096 C.3     1  UNL1        0.0259
      9 C          63.7330   85.8040   13.8275 C.3     1  UNL1        0.0941
     10 N          63.3063   85.5491   15.2427 N.am    1  UNL1       -0.2748
     11 C          62.8774   84.1738   15.6606 C.2     1  UNL1        0.2668
     12 O          62.4507   83.9189   17.0758 O.2     1  UNL1       -0.2683
     13 C          63.3084   86.6695   16.2400 C.3     1  UNL1        0.0941
     14 C          63.7372   88.0448   15.8221 C.3     1  UNL1        0.0259
     15 C          62.8753   83.0534   14.6633 C.ar    1  UNL1        0.1347
     16 C          61.6654   82.1781   14.5212 C.ar    1  UNL1        0.0238
     17 C          61.6633   81.0577   13.5239 C.ar    1  UNL1        0.0033
     18 C          62.8710   80.8126   12.6687 C.ar    1  UNL1        0.0207
     19 C          64.0808   81.6879   12.8107 C.ar    1  UNL1        0.0990
     20 N          64.0829   82.8083   13.8080 N.ar    1  UNL1       -0.2393
     21 N          65.6814   94.2499   11.3178 N.am    1  UNL1       -0.1708
     22 C          65.8794   93.8009   12.7352 C.2     1  UNL1        0.3078
     23 O          66.5063   94.7271   13.7347 O.2     1  UNL1       -0.2516
     24 H          65.2700   93.6420   10.6618 H       1  UNL1        0.2545
     25 N          65.6515   96.8227   11.6780 N.pl3   1  UNL1       -0.1313
     26 C          66.1103   95.6252   10.8999 C.2     1  UNL1        0.3751
     27 N          66.9979   95.8030    9.7038 N.pl3   1  UNL1       -0.2906
     28 H          65.9330   97.7254   11.4037 H       1  UNL1        0.3060
     29 H          67.2794   96.7056    9.4295 H       1  UNL1        0.2545
     30 H          67.2990   95.0170    9.1931 H       1  UNL1        0.2545
     31 C          62.6224   89.7758   12.2986 C.3     1  UNL1        0.4183
     32 F          61.4228   89.1386   11.6623 F       1  UNL1       -0.1659
     33 F          61.8267   90.0298   13.5445 F       1  UNL1       -0.1659
     34 F          63.4181   89.5218   11.0527 F       1  UNL1       -0.1659
@<TRIPOS>BOND
     1    25    26    2
     2    26    27    1
     3    26    21    1
     4    21    22   am
     5    22    23    2
     6    22     1    1
     7     1     2   ar
     8     2     3   ar
     9     3     4   ar
    10     4     7    1
    11     7     8    1
    12     8     9    1
    13     9    10    1
    14    10    11   am
    15    11    12    2
    16    11    15    1
    17    15    16   ar
    18    16    17   ar
    19    17    18   ar
    20    18    19   ar
    21    19    20   ar
    22    10    13    1
    23    13    14    1
    24     4     5   ar
    25     5    31    1
    26    31    32    1
    27    31    33    1
    28    31    34    1
    29     5     6   ar
    30     6     1   ar
    31    14     7    1
    32    20    15   ar
    33    25    28    1
    34    27    29    1
    35    27    30    1
    36    21    24    1
@<TRIPOS>MOLECULE
*****
 34 36 0 0 0
SMALL
GASTEIGER

@<TRIPOS>ATOM
      1 C          65.7211   93.8799   11.3855 C.ar    1  UNL1        0.0696
      2 C          66.3568   93.6685   12.7275 C.ar    1  UNL1        0.0057
      3 C          65.9342   92.5117   13.5838 C.ar    1  UNL1       -0.0041
      4 C          64.8758   91.5663   13.0980 C.ar    1  UNL1       -0.0185
      5 C          64.2401   91.7777   11.7559 C.ar    1  UNL1        0.0677
      6 C          64.6627   92.9345   10.8997 C.ar    1  UNL1        0.0095
      7 C          64.4532   90.4094   13.9542 C.3     1  UNL1        0.0257
      8 C          64.4603   89.0186   13.3925 C.3     1  UNL1        0.0259
      9 C          64.0377   87.8618   14.2487 C.3     1  UNL1        0.0941
     10 N          63.6080   88.0958   15.6666 N.am    1  UNL1       -0.2748
     11 C          63.1854   86.9389   16.5229 C.2     1  UNL1        0.2668
     12 O          62.7557   87.1729   17.9408 O.2     1  UNL1       -0.2683
     13 C          63.6009   89.4866   16.2283 C.3     1  UNL1        0.0941
     14 C          64.0235   90.6434   15.3721 C.3     1  UNL1        0.0259
     15 C          63.1924   85.5481   15.9612 C.ar    1  UNL1        0.1347
     16 C          64.4936   84.8814   15.6255 C.ar    1  UNL1        0.0238
     17 C          64.5006   83.4906   15.0638 C.ar    1  UNL1        0.0033
     18 C          63.2066   82.7664   14.8377 C.ar    1  UNL1        0.0207
     19 C          61.9055   83.4331   15.1733 C.ar    1  UNL1        0.0990
     20 N          61.8984   84.8240   15.7351 N.ar    1  UNL1       -0.2393
     21 N          66.1981   94.8856    9.0379 N.am    1  UNL1       -0.1708
     22 C          66.1437   95.0368   10.5293 C.2     1  UNL1        0.3078
     23 O          66.5119   96.3448   11.1644 O.2     1  UNL1       -0.2516
     24 H          65.9564   94.0271    8.6211 H       1  UNL1        0.2545
     25 N          65.7482   96.4949    7.0486 N.pl3   1  UNL1       -0.1313
     26 C          66.6207   96.0424    8.1817 C.2     1  UNL1        0.3751
     27 N          67.9158   96.7467    8.4587 N.pl3   1  UNL1       -0.2906
     28 H          66.0256   97.2542    6.4866 H       1  UNL1        0.3060
     29 H          68.1932   97.5060    7.8967 H       1  UNL1        0.2545
     30 H          68.4884   96.4497    9.2024 H       1  UNL1        0.2545
     31 C          63.1817   90.8323   11.2701 C.3     1  UNL1        0.4183
     32 F          62.1233   89.8869   10.7842 F       1  UNL1       -0.1659
     33 F          62.3134   91.2057   12.4347 F       1  UNL1       -0.1659
     34 F          64.0500   90.4588   10.1054 F       1  UNL1       -0.1659
@<TRIPOS>BOND
     1    25    26    2
     2    26    27    1
     3    26    21    1
     4    21    22   am
     5    22    23    2
     6    22     1    1
     7     1     2   ar
     8     2     3   ar
     9     3     4   ar
    10     4     7    1
    11     7     8    1
    12     8     9    1
    13     9    10    1
    14    10    11   am
    15    11    12    2
    16    11    15    1
    17    15    16   ar
    18    16    17   ar
    19    17    18   ar
    20    18    19   ar
    21    19    20   ar
    22    10    13    1
    23    13    14    1
    24     4     5   ar
    25     5    31    1
    26    31    32    1
    27    31    33    1
    28    31    34    1
    29     5     6   ar
    30     6     1   ar
    31    14     7    1
    32    20    15   ar
    33    25    28    1
    34    27    29    1
    35    27    30    1
    36    21    24    1
@<TRIPOS>MOLECULE
*****
 34 36 0 0 0
SMALL
GASTEIGER

@<TRIPOS>ATOM
      1 C          59.4255   89.5244    7.1362 C.ar    1  UNL1        0.0696
      2 C          59.4890   88.0285    7.0456 C.ar    1  UNL1        0.0057
      3 C          60.1857   87.2412    8.1156 C.ar    1  UNL1       -0.0041
      4 C          60.8189   87.9498    9.2761 C.ar    1  UNL1       -0.0185
      5 C          60.7554   89.4457    9.3667 C.ar    1  UNL1        0.0677
      6 C          60.0587   90.2330    8.2968 C.ar    1  UNL1        0.0095
      7 C          61.5156   87.1625   10.3460 C.3     1  UNL1        0.0257
      8 C          61.2786   85.6862   10.4656 C.3     1  UNL1        0.0259
      9 C          61.9753   84.8989   11.5355 C.3     1  UNL1        0.0941
     10 N          62.9090   85.5879   12.4859 N.am    1  UNL1       -0.2748
     11 C          63.6058   84.8007   13.5559 C.2     1  UNL1        0.2668
     12 O          64.5395   85.4897   14.5063 O.2     1  UNL1       -0.2683
     13 C          63.1461   87.0642   12.3664 C.3     1  UNL1        0.0941
     14 C          62.4494   87.8515   11.2965 C.3     1  UNL1        0.0259
     15 C          63.3687   83.3244   13.6754 C.ar    1  UNL1        0.1347
     16 C          62.1799   82.8147   14.4350 C.ar    1  UNL1        0.0238
     17 C          61.9429   81.3384   14.5546 C.ar    1  UNL1        0.0033
     18 C          62.8946   80.3717   13.9145 C.ar    1  UNL1        0.0207
     19 C          64.0834   80.8813   13.1549 C.ar    1  UNL1        0.0990
     20 N          64.3205   82.3577   13.0353 N.ar    1  UNL1       -0.2393
     21 N          59.4959   91.3077    5.2482 N.am    1  UNL1       -0.1708
     22 C          58.7288   90.3116    6.0663 C.2     1  UNL1        0.3078
     23 O          57.2649   90.1028    5.8144 O.2     1  UNL1       -0.2516
     24 H          60.4567   91.4448    5.4136 H       1  UNL1        0.2545
     25 N          59.5910   92.9821    3.2639 N.pl3   1  UNL1       -0.1313
     26 C          58.7992   92.0950    4.1783 C.2     1  UNL1        0.3751
     27 N          57.3105   91.9953    4.0228 N.pl3   1  UNL1       -0.2906
     28 H          59.1337   93.4988    2.5617 H       1  UNL1        0.3060
     29 H          56.8532   92.5120    3.3206 H       1  UNL1        0.2545
     30 H          56.7908   91.4131    4.6229 H       1  UNL1        0.2545
     31 C          61.3886   90.1544   10.5273 C.3     1  UNL1        0.4183
     32 F          62.0219   90.8630   11.6878 F       1  UNL1       -0.1659
     33 F          60.1257   89.9866   11.3189 F       1  UNL1       -0.1659
     34 F          62.6516   90.3221    9.7357 F       1  UNL1       -0.1659
@<TRIPOS>BOND
     1    25    26    2
     2    26    27    1
     3    26    21    1
     4    21    22   am
     5    22    23    2
     6    22     1    1
     7     1     2   ar
     8     2     3   ar
     9     3     4   ar
    10     4     7    1
    11     7     8    1
    12     8     9    1
    13     9    10    1
    14    10    11   am
    15    11    12    2
    16    11    15    1
    17    15    16   ar
    18    16    17   ar
    19    17    18   ar
    20    18    19   ar
    21    19    20   ar
    22    10    13    1
    23    13    14    1
    24     4     5   ar
    25     5    31    1
    26    31    32    1
    27    31    33    1
    28    31    34    1
    29     5     6   ar
    30     6     1   ar
    31    14     7    1
    32    20    15   ar
    33    25    28    1
    34    27    29    1
    35    27    30    1
    36    21    24    1
@<TRIPOS>MOLECULE
*****
 34 36 0 0 0
SMALL
GASTEIGER

@<TRIPOS>ATOM
      1 C          63.1686   86.2328   13.7143 C.ar    1  UNL1        0.0696
      2 C          64.2394   86.8008   14.5978 C.ar    1  UNL1        0.0057
      3 C          64.7368   88.1975   14.3703 C.ar    1  UNL1       -0.0041
      4 C          64.1633   89.0263   13.2593 C.ar    1  UNL1       -0.0185
      5 C          63.0924   88.4583   12.3759 C.ar    1  UNL1        0.0677
      6 C          62.5951   87.0615   12.6033 C.ar    1  UNL1        0.0095
      7 C          64.6606   90.4230   13.0319 C.3     1  UNL1        0.0257
      8 C          64.7489   90.9700   11.6380 C.3     1  UNL1        0.0259
      9 C          65.2463   92.3668   11.4106 C.3     1  UNL1        0.0941
     10 N          65.6553   93.2165   12.5770 N.am    1  UNL1       -0.2748
     11 C          66.1527   94.6132   12.3495 C.2     1  UNL1        0.2668
     12 O          66.5618   95.4630   13.5159 O.2     1  UNL1       -0.2683
     13 C          65.5670   92.6695   13.9708 C.3     1  UNL1        0.0941
     14 C          65.0697   91.2727   14.1983 C.3     1  UNL1        0.0259
     15 C          66.2410   95.1603   10.9556 C.ar    1  UNL1        0.1347
     16 C          65.2379   96.1697   10.4811 C.ar    1  UNL1        0.0238
     17 C          65.3262   96.7167    9.0872 C.ar    1  UNL1        0.0033
     18 C          66.4175   96.2544    8.1678 C.ar    1  UNL1        0.0207
     19 C          67.4206   95.2450    8.6423 C.ar    1  UNL1        0.0990
     20 N          67.3323   94.6980   10.0362 N.ar    1  UNL1       -0.2393
     21 N          63.2160   83.7033   13.1232 N.am    1  UNL1       -0.1708
     22 C          62.6712   84.8360   13.9417 C.2     1  UNL1        0.3078
     23 O          61.6290   84.5720   14.9877 O.2     1  UNL1       -0.2516
     24 H          63.9001   83.8765   12.4367 H       1  UNL1        0.2545
     25 N          62.3525   81.8567   14.7340 N.pl3   1  UNL1       -0.1313
     26 C          62.7187   82.3065   13.3507 C.2     1  UNL1        0.3751
     27 N          62.5875   81.3596   12.1947 N.pl3   1  UNL1       -0.2906
     28 H          62.0261   80.9400   14.8832 H       1  UNL1        0.3060
     29 H          62.2610   80.4428   12.3440 H       1  UNL1        0.2545
     30 H          62.8278   81.6548   11.2868 H       1  UNL1        0.2545
     31 C          62.5189   89.2870   11.2648 C.3     1  UNL1        0.4183
     32 F          61.9454   90.1157   10.1538 F       1  UNL1       -0.1659
     33 F          61.8418   90.1686   12.2719 F       1  UNL1       -0.1659
     34 F          63.1960   88.4054   10.2577 F       1  UNL1       -0.1659
@<TRIPOS>BOND
     1    25    26    2
     2    26    27    1
     3    26    21    1
     4    21    22   am
     5    22    23    2
     6    22     1    1
     7     1     2   ar
     8     2     3   ar
     9     3     4   ar
    10     4     7    1
    11     7     8    1
    12     8     9    1
    13     9    10    1
    14    10    11   am
    15    11    12    2
    16    11    15    1
    17    15    16   ar
    18    16    17   ar
    19    17    18   ar
    20    18    19   ar
    21    19    20   ar
    22    10    13    1
    23    13    14    1
    24     4     5   ar
    25     5    31    1
    26    31    32    1
    27    31    33    1
    28    31    34    1
    29     5     6   ar
    30     6     1   ar
    31    14     7    1
    32    20    15   ar
    33    25    28    1
    34    27    29    1
    35    27    30    1
    36    21    24    1
@<TRIPOS>MOLECULE
*****
 34 36 0 0 0
SMALL
GASTEIGER

@<TRIPOS>ATOM
      1 C          62.9629   81.6692   11.7659 C.ar    1  UNL1        0.0696
      2 C          63.0745   82.5636   10.5670 C.ar    1  UNL1        0.0057
      3 C          63.1440   84.0514   10.7450 C.ar    1  UNL1       -0.0041
      4 C          63.1020   84.6447   12.1220 C.ar    1  UNL1       -0.0185
      5 C          62.9905   83.7503   13.3210 C.ar    1  UNL1        0.0677
      6 C          62.9210   82.2625   13.1429 C.ar    1  UNL1        0.0095
      7 C          63.1715   86.1325   12.3001 C.3     1  UNL1        0.0257
      8 C          63.9618   86.7161   13.4336 C.3     1  UNL1        0.0259
      9 C          64.0314   88.2039   13.6116 C.3     1  UNL1        0.0941
     10 N          63.3106   89.1081   12.6562 N.am    1  UNL1       -0.2748
     11 C          63.3801   90.5958   12.8342 C.2     1  UNL1        0.2668
     12 O          62.6594   91.5000   11.8788 O.2     1  UNL1       -0.2683
     13 C          62.5203   88.5245   11.5227 C.3     1  UNL1        0.0941
     14 C          62.4508   87.0367   11.3446 C.3     1  UNL1        0.0259
     15 C          64.1704   91.1794   13.9677 C.ar    1  UNL1        0.1347
     16 C          65.5650   91.6786   13.7309 C.ar    1  UNL1        0.0238
     17 C          66.3553   92.2622   14.8644 C.ar    1  UNL1        0.0033
     18 C          65.7511   92.3466   16.2347 C.ar    1  UNL1        0.0207
     19 C          64.3566   91.8475   16.4715 C.ar    1  UNL1        0.0990
     20 N          63.5662   91.2638   15.3380 N.ar    1  UNL1       -0.2393
     21 N          63.2070   79.5702   10.2545 N.am    1  UNL1       -0.1708
     22 C          62.8934   80.1814   11.5879 C.2     1  UNL1        0.3078
     23 O          62.5103   79.3049   12.7432 O.2     1  UNL1       -0.2516
     24 H          63.4585   80.1455    9.4962 H       1  UNL1        0.2545
     25 N          64.2173   77.3662    9.3209 N.pl3   1  UNL1       -0.1313
     26 C          63.1375   78.0824   10.0765 C.2     1  UNL1        0.3751
     27 N          61.9880   77.3108   10.6541 N.pl3   1  UNL1       -0.2906
     28 H          64.1717   76.3897    9.2040 H       1  UNL1        0.3060
     29 H          61.9424   76.3344   10.5372 H       1  UNL1        0.2545
     30 H          61.2793   77.7809   11.1500 H       1  UNL1        0.2545
     31 C          62.9485   84.3436   14.6981 C.3     1  UNL1        0.4183
     32 F          62.9065   84.9369   16.0751 F       1  UNL1       -0.1659
     33 F          64.4319   84.1595   14.8227 F       1  UNL1       -0.1659
     34 F          61.4651   84.5277   14.5735 F       1  UNL1       -0.1659
@<TRIPOS>BOND
     1    25    26    2
     2    26    27    1
     3    26    21    1
     4    21    22   am
     5    22    23    2
     6    22     1    1
     7     1     2   ar
     8     2     3   ar
     9     3     4   ar
    10     4     7    1
    11     7     8    1
    12     8     9    1
    13     9    10    1
    14    10    11   am
    15    11    12    2
    16    11    15    1
    17    15    16   ar
    18    16    17   ar
    19    17    18   ar
    20    18    19   ar
    21    19    20   ar
    22    10    13    1
    23    13    14    1
    24     4     5   ar
    25     5    31    1
    26    31    32    1
    27    31    33    1
    28    31    34    1
    29     5     6   ar
    30     6     1   ar
    31    14     7    1
    32    20    15   ar
    33    25    28    1
    34    27    29    1
    35    27    30    1
    36    21    24    1
@<TRIPOS>MOLECULE
*****
 34 36 0 0 0
SMALL
GASTEIGER

@<TRIPOS>ATOM
      1 C          63.7776   94.4032   -0.3402 C.ar    1  UNL1        0.0696
      2 C          64.2511   94.3421    1.0817 C.ar    1  UNL1        0.0057
      3 C          63.4011   93.6834    2.1276 C.ar    1  UNL1       -0.0041
      4 C          62.0777   93.0860    1.7514 C.ar    1  UNL1       -0.0185
      5 C          61.6042   93.1471    0.3295 C.ar    1  UNL1        0.0677
      6 C          62.4542   93.8058   -0.7164 C.ar    1  UNL1        0.0095
      7 C          61.2277   92.4273    2.7973 C.3     1  UNL1        0.0257
      8 C          61.8475   91.4763    3.7778 C.3     1  UNL1        0.0259
      9 C          60.9975   90.8177    4.8236 C.3     1  UNL1        0.0941
     10 N          59.5278   91.1101    4.8889 N.am    1  UNL1       -0.2748
     11 C          58.6778   90.4514    5.9347 C.2     1  UNL1        0.2668
     12 O          57.2081   90.7438    6.0001 O.2     1  UNL1       -0.2683
     13 C          58.9080   92.0611    3.9084 C.3     1  UNL1        0.0941
     14 C          59.7580   92.7197    2.8626 C.3     1  UNL1        0.0259
     15 C          59.2976   89.5004    6.9152 C.ar    1  UNL1        0.1347
     16 C          59.0566   88.0256    6.7846 C.ar    1  UNL1        0.0238
     17 C          59.6764   87.0746    7.7651 C.ar    1  UNL1        0.0033
     18 C          60.5372   87.5983    8.8763 C.ar    1  UNL1        0.0207
     19 C          60.7782   89.0730    9.0070 C.ar    1  UNL1        0.0990
     20 N          60.1584   90.0241    8.0264 N.ar    1  UNL1       -0.2393
     21 N          64.2638   94.9373   -2.8359 N.am    1  UNL1       -0.1708
     22 C          64.6276   95.0619   -1.3860 C.2     1  UNL1        0.3078
     23 O          65.8414   95.8451   -0.9820 O.2     1  UNL1       -0.2516
     24 H          63.4671   94.4233   -3.1011 H       1  UNL1        0.2545
     25 N          65.8600   96.8560   -3.5573 N.pl3   1  UNL1       -0.1313
     26 C          65.1137   95.5960   -3.8817 C.2     1  UNL1        0.3751
     27 N          65.2174   94.9945   -5.2520 N.pl3   1  UNL1       -0.2906
     28 H          66.4179   97.2883   -4.2438 H       1  UNL1        0.3060
     29 H          65.7752   95.4267   -5.9384 H       1  UNL1        0.2545
     30 H          64.7275   94.1674   -5.4649 H       1  UNL1        0.2545
     31 C          60.2807   92.5497   -0.0467 C.3     1  UNL1        0.4183
     32 F          58.9573   91.9522   -0.4229 F       1  UNL1       -0.1659
     33 F          59.6643   93.9171   -0.0501 F       1  UNL1       -0.1659
     34 F          60.8972   91.1822   -0.0434 F       1  UNL1       -0.1659
@<TRIPOS>BOND
     1    25    26    2
     2    26    27    1
     3    26    21    1
     4    21    22   am
     5    22    23    2
     6    22     1    1
     7     1     2   ar
     8     2     3   ar
     9     3     4   ar
    10     4     7    1
    11     7     8    1
    12     8     9    1
    13     9    10    1
    14    10    11   am
    15    11    12    2
    16    11    15    1
    17    15    16   ar
    18    16    17   ar
    19    17    18   ar
    20    18    19   ar
    21    19    20   ar
    22    10    13    1
    23    13    14    1
    24     4     5   ar
    25     5    31    1
    26    31    32    1
    27    31    33    1
    28    31    34    1
    29     5     6   ar
    30     6     1   ar
    31    14     7    1
    32    20    15   ar
    33    25    28    1
    34    27    29    1
    35    27    30    1
    36    21    24    1
@<TRIPOS>MOLECULE
*****
 34 36 0 0 0
SMALL
GASTEIGER

@<TRIPOS>ATOM
      1 C          59.2778   89.1620    6.9376 C.ar    1  UNL1        0.0696
      2 C          59.3371   87.7114    6.5609 C.ar    1  UNL1        0.0057
      3 C          60.1319   86.7515    7.3958 C.ar    1  UNL1       -0.0041
      4 C          60.8673   87.2423    8.6075 C.ar    1  UNL1       -0.0185
      5 C          60.8080   88.6930    8.9842 C.ar    1  UNL1        0.0677
      6 C          60.0133   89.6529    8.1493 C.ar    1  UNL1        0.0095
      7 C          61.6621   86.2825    9.4424 C.3     1  UNL1        0.0257
      8 C          61.5586   86.3258   10.9381 C.3     1  UNL1        0.0259
      9 C          62.3533   85.3660   11.7731 C.3     1  UNL1        0.0941
     10 N          63.2516   84.3628   11.1122 N.am    1  UNL1       -0.2748
     11 C          64.0463   83.4030   11.9471 C.2     1  UNL1        0.2668
     12 O          64.9446   82.3998   11.2863 O.2     1  UNL1       -0.2683
     13 C          63.3551   84.3195    9.6164 C.3     1  UNL1        0.0941
     14 C          62.5603   85.2793    8.7815 C.3     1  UNL1        0.0259
     15 C          63.9428   83.4463   13.4429 C.ar    1  UNL1        0.1347
     16 C          64.9166   84.2640   14.2387 C.ar    1  UNL1        0.0238
     17 C          64.8131   84.3073   15.7345 C.ar    1  UNL1        0.0033
     18 C          63.7359   83.5330   16.4345 C.ar    1  UNL1        0.0207
     19 C          62.7622   82.7153   15.6387 C.ar    1  UNL1        0.0990
     20 N          62.8656   82.6720   14.1429 N.ar    1  UNL1       -0.2393
     21 N          59.1872   91.1358    5.2507 N.am    1  UNL1       -0.1708
     22 C          58.4831   90.1219    6.1027 C.2     1  UNL1        0.3078
     23 O          56.9842   90.0678    6.1199 O.2     1  UNL1       -0.2516
     24 H          60.1710   91.1713    5.2394 H       1  UNL1        0.2545
     25 N          57.0182   92.5093    4.8520 N.pl3   1  UNL1       -0.1313
     26 C          58.3925   92.0956    4.4157 C.2     1  UNL1        0.3751
     27 N          58.9720   92.6418    3.1446 N.pl3   1  UNL1       -0.2906
     28 H          56.4966   93.1392    4.3040 H       1  UNL1        0.3060
     29 H          58.4504   93.2718    2.5966 H       1  UNL1        0.2545
     30 H          59.8740   92.3704    2.8583 H       1  UNL1        0.2545
     31 C          61.5435   89.1839   10.1959 C.3     1  UNL1        0.4183
     32 F          62.2789   89.6748   11.4076 F       1  UNL1       -0.1659
     33 F          62.8461   89.0270    9.4689 F       1  UNL1       -0.1659
     34 F          60.2409   89.3408   10.9229 F       1  UNL1       -0.1659
@<TRIPOS>BOND
     1    25    26    2
     2    26    27    1
     3    26    21    1
     4    21    22   am
     5    22    23    2
     6    22     1    1
     7     1     2   ar
     8     2     3   ar
     9     3     4   ar
    10     4     7    1
    11     7     8    1
    12     8     9    1
    13     9    10    1
    14    10    11   am
    15    11    12    2
    16    11    15    1
    17    15    16   ar
    18    16    17   ar
    19    17    18   ar
    20    18    19   ar
    21    19    20   ar
    22    10    13    1
    23    13    14    1
    24     4     5   ar
    25     5    31    1
    26    31    32    1
    27    31    33    1
    28    31    34    1
    29     5     6   ar
    30     6     1   ar
    31    14     7    1
    32    20    15   ar
    33    25    28    1
    34    27    29    1
    35    27    30    1
    36    21    24    1
