@<TRIPOS>MOLECULE
*****
 27 30 0 0 0
SMALL
GASTEIGER

@<TRIPOS>ATOM
      1 C          60.6306   87.0636    9.2378 C.ar    1  UNL1        0.1344
      2 C          59.8647   86.6058    8.0320 C.ar    1  UNL1        0.0345
      3 C          59.3968   87.6057    7.0165 C.ar    1  UNL1        0.0044
      4 C          59.6949   89.0635    7.2068 C.ar    1  UNL1        0.0194
      5 C          60.4608   89.5212    8.4125 C.ar    1  UNL1        0.1003
      6 N          60.9287   88.5213    9.4280 N.ar    1  UNL1       -0.2290
      7 C          59.2270   90.0634    6.1913 C.ar    1  UNL1        0.0045
      8 C          57.7597   90.3154    6.0077 C.ar    1  UNL1        0.0002
      9 C          57.2919   91.3154    4.9922 C.ar    1  UNL1        0.0031
     10 C          58.2913   92.0633    4.1603 C.ar    1  UNL1        0.0369
     11 C          59.7585   91.8112    4.3440 C.ar    1  UNL1        0.1384
     12 C          60.2263   90.8113    5.3595 C.ar    1  UNL1        0.0369
     13 O          60.7578   92.5591    3.5121 O.3     1  UNL1       -0.4792
     14 C          62.0889   91.9406    3.2028 C.3     1  UNL1        0.1661
     15 C          63.0641   90.8115    3.3576 C.3     1  UNL1        0.0472
     16 C          63.4191   91.9986    2.5121 C.3     1  UNL1        0.0472
     17 C          62.3681   85.2988   10.0231 C.2     1  UNL1        0.2536
     18 O          63.1699   85.5340    8.7774 O.2     1  UNL1       -0.2697
     19 N          61.0985   86.0637   10.2533 N.am    1  UNL1       -0.2657
     20 H          60.5722   85.9093   11.0709 H       1  UNL1        0.1566
     21 C          64.2396   81.2991   14.0850 C.3     1  UNL1        0.0737
     22 C          63.7717   82.2990   13.0695 C.ar    1  UNL1        0.1396
     23 N          62.9549   83.4806   13.5015 N.ar    1  UNL1       -0.2290
     24 C          62.4870   84.4805   12.4860 C.ar    1  UNL1        0.1063
     25 C          62.8360   84.2989   11.0386 C.ar    1  UNL1        0.0919
     26 C          63.6528   83.1173   10.6066 C.ar    1  UNL1        0.1063
     27 N          64.1207   82.1174   11.6221 N.ar    1  UNL1       -0.2290
@<TRIPOS>BOND
     1    21    22    1
     2    22    23   ar
     3    23    24   ar
     4    24    25   ar
     5    25    17    1
     6    17    18    2
     7    17    19   am
     8    19     1    1
     9     1     2   ar
    10     2     3   ar
    11     3     4   ar
    12     4     7    1
    13     7     8   ar
    14     8     9   ar
    15     9    10   ar
    16    10    11   ar
    17    11    13    1
    18    13    14    1
    19    14    15    1
    20    15    16    1
    21    11    12   ar
    22     4     5   ar
    23     5     6   ar
    24    25    26   ar
    25    26    27   ar
    26    27    22   ar
    27     6     1   ar
    28    12     7   ar
    29    16    14    1
    30    19    20    1
@<TRIPOS>MOLECULE
*****
 27 30 0 0 0
SMALL
GASTEIGER

@<TRIPOS>ATOM
      1 C          63.7630   90.0959   12.2672 C.ar    1  UNL1        0.1344
      2 C          63.2058   90.9189   11.1436 C.ar    1  UNL1        0.0345
      3 C          62.2565   90.3008   10.1604 C.ar    1  UNL1        0.0044
      4 C          61.8643   88.8598   10.3007 C.ar    1  UNL1        0.0194
      5 C          62.4214   88.0369   11.4243 C.ar    1  UNL1        0.1003
      6 N          63.3708   88.6549   12.4075 N.ar    1  UNL1       -0.2290
      7 C          60.9149   88.2417    9.3175 C.ar    1  UNL1        0.0045
      8 C          60.7942   86.7492    9.2281 C.ar    1  UNL1        0.0002
      9 C          59.8448   86.1312    8.2449 C.ar    1  UNL1        0.0031
     10 C          59.0162   87.0056    7.3511 C.ar    1  UNL1        0.0369
     11 C          59.1370   88.4980    7.4405 C.ar    1  UNL1        0.1384
     12 C          60.0864   89.1161    8.4237 C.ar    1  UNL1        0.0369
     13 O          58.3084   89.3724    6.5467 O.3     1  UNL1       -0.4792
     14 C          58.9681   90.4260    5.7072 C.3     1  UNL1        0.1661
     15 C          60.2026   91.0027    5.0799 C.3     1  UNL1        0.0472
     16 C          58.8762   91.6742    4.8805 C.3     1  UNL1        0.0472
     17 C          65.7830   91.6496   12.7727 C.2     1  UNL1        0.2536
     18 O          65.9043   91.9671   11.3118 O.2     1  UNL1       -0.2697
     19 N          64.7123   90.7140   13.2504 N.am    1  UNL1       -0.2657
     20 H          64.6327   90.5055   14.2093 H       1  UNL1        0.1566
     21 C          69.5804   94.1218   16.7056 C.3     1  UNL1        0.0737
     22 C          68.6310   93.5037   15.7224 C.ar    1  UNL1        0.1396
     23 N          69.1609   92.8100   14.5026 N.ar    1  UNL1       -0.2290
     24 C          68.2116   92.1920   13.5194 C.ar    1  UNL1        0.1063
     25 C          66.7323   92.2676   13.7560 C.ar    1  UNL1        0.0919
     26 C          66.2024   92.9613   14.9757 C.ar    1  UNL1        0.1063
     27 N          67.1518   93.5794   15.9590 N.ar    1  UNL1       -0.2290
@<TRIPOS>BOND
     1    21    22    1
     2    22    23   ar
     3    23    24   ar
     4    24    25   ar
     5    25    17    1
     6    17    18    2
     7    17    19   am
     8    19     1    1
     9     1     2   ar
    10     2     3   ar
    11     3     4   ar
    12     4     7    1
    13     7     8   ar
    14     8     9   ar
    15     9    10   ar
    16    10    11   ar
    17    11    13    1
    18    13    14    1
    19    14    15    1
    20    15    16    1
    21    11    12   ar
    22     4     5   ar
    23     5     6   ar
    24    25    26   ar
    25    26    27   ar
    26    27    22   ar
    27     6     1   ar
    28    12     7   ar
    29    16    14    1
    30    19    20    1
@<TRIPOS>MOLECULE
*****
 27 30 0 0 0
SMALL
GASTEIGER

@<TRIPOS>ATOM
      1 C          63.6174   87.3056   13.5066 C.ar    1  UNL1        0.1344
      2 C          64.4849   87.7158   14.6596 C.ar    1  UNL1        0.0345
      3 C          65.0563   89.1017   14.7124 C.ar    1  UNL1        0.0044
      4 C          64.7601   90.0775   13.6122 C.ar    1  UNL1        0.0194
      5 C          63.8926   89.6673   12.4594 C.ar    1  UNL1        0.1003
      6 N          63.3212   88.2814   12.4066 N.ar    1  UNL1       -0.2290
      7 C          65.3315   91.4634   13.6650 C.ar    1  UNL1        0.0045
      8 C          65.8993   91.9921   14.9488 C.ar    1  UNL1        0.0002
      9 C          66.4707   93.3780   15.0016 C.ar    1  UNL1        0.0031
     10 C          66.4742   94.2352   13.7706 C.ar    1  UNL1        0.0369
     11 C          65.9064   93.7065   12.4869 C.ar    1  UNL1        0.1384
     12 C          65.3350   92.3205   12.4341 C.ar    1  UNL1        0.0369
     13 O          65.9099   94.5636   11.2559 O.3     1  UNL1       -0.4792
     14 C          66.9024   94.3014   10.1623 C.3     1  UNL1        0.1661
     15 C          67.8679   93.3799    9.4778 C.3     1  UNL1        0.0472
     16 C          67.6560   94.7688    8.9525 C.3     1  UNL1        0.0472
     17 C          63.9326   84.7334   13.6917 C.2     1  UNL1        0.2536
     18 O          65.3905   84.9330   13.9824 O.2     1  UNL1       -0.2697
     19 N          63.0460   85.9197   13.4538 N.am    1  UNL1       -0.2657
     20 H          62.0891   85.7887   13.2630 H       1  UNL1        0.1566
     21 C          61.6471   79.1898   13.4806 C.3     1  UNL1        0.0737
     22 C          62.2185   80.5757   13.5334 C.ar    1  UNL1        0.1396
     23 N          63.1757   81.0332   12.4731 N.ar    1  UNL1       -0.2290
     24 C          63.7471   82.4191   12.5258 C.ar    1  UNL1        0.1063
     25 C          63.3612   83.3475   13.6390 C.ar    1  UNL1        0.0919
     26 C          62.4040   82.8900   14.6993 C.ar    1  UNL1        0.1063
     27 N          61.8326   81.5041   14.6465 N.ar    1  UNL1       -0.2290
@<TRIPOS>BOND
     1    21    22    1
     2    22    23   ar
     3    23    24   ar
     4    24    25   ar
     5    25    17    1
     6    17    18    2
     7    17    19   am
     8    19     1    1
     9     1     2   ar
    10     2     3   ar
    11     3     4   ar
    12     4     7    1
    13     7     8   ar
    14     8     9   ar
    15     9    10   ar
    16    10    11   ar
    17    11    13    1
    18    13    14    1
    19    14    15    1
    20    15    16    1
    21    11    12   ar
    22     4     5   ar
    23     5     6   ar
    24    25    26   ar
    25    26    27   ar
    26    27    22   ar
    27     6     1   ar
    28    12     7   ar
    29    16    14    1
    30    19    20    1
@<TRIPOS>MOLECULE
*****
 27 30 0 0 0
SMALL
GASTEIGER

@<TRIPOS>ATOM
      1 C          63.7225   85.7657   12.9309 C.ar    1  UNL1        0.1344
      2 C          64.4395   85.8313   14.2469 C.ar    1  UNL1        0.0345
      3 C          64.6163   87.1499   14.9397 C.ar    1  UNL1        0.0044
      4 C          64.0762   88.4029   14.3165 C.ar    1  UNL1        0.0194
      5 C          63.3593   88.3373   13.0006 C.ar    1  UNL1        0.1003
      6 N          63.1824   87.0186   12.3078 N.ar    1  UNL1       -0.2290
      7 C          64.2530   89.7215   15.0093 C.ar    1  UNL1        0.0045
      8 C          63.3942   90.0702   16.1888 C.ar    1  UNL1        0.0002
      9 C          63.5710   91.3888   16.8816 C.ar    1  UNL1        0.0031
     10 C          64.6067   92.3588   16.3949 C.ar    1  UNL1        0.0369
     11 C          65.4654   92.0101   15.2156 C.ar    1  UNL1        0.1384
     12 C          65.2885   90.6915   14.5228 C.ar    1  UNL1        0.0369
     13 O          66.5009   92.9801   14.7290 O.3     1  UNL1       -0.4792
     14 C          67.8257   93.0753   15.4260 C.3     1  UNL1        0.1661
     15 C          69.0230   93.8805   15.8359 C.3     1  UNL1        0.0472
     16 C          68.9229   92.4349   16.2235 C.3     1  UNL1        0.0472
     17 C          63.2582   83.2117   13.0389 C.2     1  UNL1        0.2536
     18 O          63.1474   83.2950   14.5325 O.2     1  UNL1       -0.2697
     19 N          63.5457   84.4470   12.2382 N.am    1  UNL1       -0.2657
     20 H          63.6184   84.3924   11.2579 H       1  UNL1        0.1566
     21 C          62.5509   77.9372   10.2677 C.3     1  UNL1        0.0737
     22 C          62.7277   79.2559   10.9605 C.ar    1  UNL1        0.1396
     23 N          62.4920   79.3644   12.4379 N.ar    1  UNL1       -0.2290
     24 C          62.6688   80.6831   13.1307 C.ar    1  UNL1        0.1063
     25 C          63.0813   81.8931   12.3461 C.ar    1  UNL1        0.0919
     26 C          63.3171   81.7845   10.8688 C.ar    1  UNL1        0.1063
     27 N          63.1403   80.4659   10.1760 N.ar    1  UNL1       -0.2290
@<TRIPOS>BOND
     1    21    22    1
     2    22    23   ar
     3    23    24   ar
     4    24    25   ar
     5    25    17    1
     6    17    18    2
     7    17    19   am
     8    19     1    1
     9     1     2   ar
    10     2     3   ar
    11     3     4   ar
    12     4     7    1
    13     7     8   ar
    14     8     9   ar
    15     9    10   ar
    16    10    11   ar
    17    11    13    1
    18    13    14    1
    19    14    15    1
    20    15    16    1
    21    11    12   ar
    22     4     5   ar
    23     5     6   ar
    24    25    26   ar
    25    26    27   ar
    26    27    22   ar
    27     6     1   ar
    28    12     7   ar
    29    16    14    1
    30    19    20    1
@<TRIPOS>MOLECULE
*****
 27 30 0 0 0
SMALL
GASTEIGER

@<TRIPOS>ATOM
      1 C          63.3878   86.1704   13.0120 C.ar    1  UNL1        0.1344
      2 C          64.0485   86.2417   14.3569 C.ar    1  UNL1        0.0345
      3 C          64.4105   87.5733   14.9449 C.ar    1  UNL1        0.0044
      4 C          64.1120   88.8335   14.1881 C.ar    1  UNL1        0.0194
      5 C          63.4514   88.7622   12.8433 C.ar    1  UNL1        0.1003
      6 N          63.0893   87.4306   12.2553 N.ar    1  UNL1       -0.2290
      7 C          64.4740   90.1651   14.7761 C.ar    1  UNL1        0.0045
      8 C          64.0162   90.5239   16.1588 C.ar    1  UNL1        0.0002
      9 C          64.3783   91.8554   16.7469 C.ar    1  UNL1        0.0031
     10 C          65.1982   92.8283   15.9522 C.ar    1  UNL1        0.0369
     11 C          65.6559   92.4695   14.5696 C.ar    1  UNL1        0.1384
     12 C          65.2939   91.1380   13.9815 C.ar    1  UNL1        0.0369
     13 O          66.4758   93.4424   13.7750 O.3     1  UNL1       -0.4792
     14 C          66.4314   93.4117   12.2759 C.3     1  UNL1        0.1661
     15 C          66.9014   92.8338   10.9740 C.3     1  UNL1        0.0472
     16 C          65.8848   93.9367   10.9815 C.3     1  UNL1        0.0472
     17 C          63.8924   83.6428   12.6855 C.2     1  UNL1        0.2536
     18 O          65.1211   83.7784   13.5351 O.2     1  UNL1       -0.2697
     19 N          63.0258   84.8388   12.4240 N.am    1  UNL1       -0.2657
     20 H          62.2193   84.7498   11.8664 H       1  UNL1        0.1566
     21 C          62.4441   78.3164   10.3334 C.3     1  UNL1        0.0737
     22 C          62.8062   79.6480   10.9215 C.ar    1  UNL1        0.1396
     23 N          63.3366   80.7385   10.0386 N.ar    1  UNL1       -0.2290
     24 C          63.6986   82.0701   10.6267 C.ar    1  UNL1        0.1063
     25 C          63.5303   82.3112   12.0975 C.ar    1  UNL1        0.0919
     26 C          62.9999   81.2207   12.9804 C.ar    1  UNL1        0.1063
     27 N          62.6379   79.8891   12.3923 N.ar    1  UNL1       -0.2290
@<TRIPOS>BOND
     1    21    22    1
     2    22    23   ar
     3    23    24   ar
     4    24    25   ar
     5    25    17    1
     6    17    18    2
     7    17    19   am
     8    19     1    1
     9     1     2   ar
    10     2     3   ar
    11     3     4   ar
    12     4     7    1
    13     7     8   ar
    14     8     9   ar
    15     9    10   ar
    16    10    11   ar
    17    11    13    1
    18    13    14    1
    19    14    15    1
    20    15    16    1
    21    11    12   ar
    22     4     5   ar
    23     5     6   ar
    24    25    26   ar
    25    26    27   ar
    26    27    22   ar
    27     6     1   ar
    28    12     7   ar
    29    16    14    1
    30    19    20    1
@<TRIPOS>MOLECULE
*****
 27 30 0 0 0
SMALL
GASTEIGER

@<TRIPOS>ATOM
      1 C          63.8021   90.3698   12.1411 C.ar    1  UNL1        0.1344
      2 C          63.2908   88.9704   12.3155 C.ar    1  UNL1        0.0345
      3 C          62.3271   88.3946   11.3207 C.ar    1  UNL1        0.0044
      4 C          61.8747   89.2182   10.1514 C.ar    1  UNL1        0.0194
      5 C          62.3860   90.6175    9.9771 C.ar    1  UNL1        0.1003
      6 N          63.3497   91.1933   10.9719 N.ar    1  UNL1       -0.2290
      7 C          60.9110   88.6425    9.1565 C.ar    1  UNL1        0.0045
      8 C          59.8516   89.5129    8.5481 C.ar    1  UNL1        0.0002
      9 C          58.8879   88.9372    7.5532 C.ar    1  UNL1        0.0031
     10 C          58.9835   87.4909    7.1668 C.ar    1  UNL1        0.0369
     11 C          60.0428   86.6205    7.7753 C.ar    1  UNL1        0.1384
     12 C          61.0065   87.1963    8.7701 C.ar    1  UNL1        0.0369
     13 O          60.1384   85.1743    7.3889 O.3     1  UNL1       -0.4792
     14 C          61.2904   84.6950    6.5563 C.3     1  UNL1        0.1661
     15 C          61.8125   84.0864    5.2886 C.3     1  UNL1        0.0472
     16 C          62.7637   84.4734    6.3820 C.3     1  UNL1        0.0472
     17 C          65.8975   91.8122   12.6690 C.2     1  UNL1        0.2536
     18 O          66.0655   92.1031   11.2071 O.2     1  UNL1       -0.2697
     19 N          64.7658   90.9456   13.1360 N.am    1  UNL1       -0.2657
     20 H          64.6555   90.7547   14.0955 H       1  UNL1        0.1566
     21 C          69.7523   94.1153   16.6484 C.3     1  UNL1        0.0737
     22 C          68.7886   93.5396   15.6535 C.ar    1  UNL1        0.1396
     23 N          69.2975   92.7263   14.5005 N.ar    1  UNL1       -0.2290
     24 C          68.3338   92.1505   13.5056 C.ar    1  UNL1        0.1063
     25 C          66.8612   92.3880   13.6638 C.ar    1  UNL1        0.0919
     26 C          66.3523   93.2012   14.8169 C.ar    1  UNL1        0.1063
     27 N          67.3160   93.7770   15.8118 N.ar    1  UNL1       -0.2290
@<TRIPOS>BOND
     1    21    22    1
     2    22    23   ar
     3    23    24   ar
     4    24    25   ar
     5    25    17    1
     6    17    18    2
     7    17    19   am
     8    19     1    1
     9     1     2   ar
    10     2     3   ar
    11     3     4   ar
    12     4     7    1
    13     7     8   ar
    14     8     9   ar
    15     9    10   ar
    16    10    11   ar
    17    11    13    1
    18    13    14    1
    19    14    15    1
    20    15    16    1
    21    11    12   ar
    22     4     5   ar
    23     5     6   ar
    24    25    26   ar
    25    26    27   ar
    26    27    22   ar
    27     6     1   ar
    28    12     7   ar
    29    16    14    1
    30    19    20    1
@<TRIPOS>MOLECULE
*****
 27 30 0 0 0
SMALL
GASTEIGER

@<TRIPOS>ATOM
      1 C          60.6915   86.9457    9.1449 C.ar    1  UNL1        0.1344
      2 C          60.8420   88.4114    9.4267 C.ar    1  UNL1        0.0345
      3 C          60.3146   89.4208    8.4506 C.ar    1  UNL1        0.0044
      4 C          59.6366   88.9646    7.1926 C.ar    1  UNL1        0.0194
      5 C          59.4861   87.4991    6.9109 C.ar    1  UNL1        0.1003
      6 N          60.0135   86.4896    7.8870 N.ar    1  UNL1       -0.2290
      7 C          59.1092   89.9741    6.2165 C.ar    1  UNL1        0.0045
      8 C          57.6295   90.1609    6.0567 C.ar    1  UNL1        0.0002
      9 C          57.1020   91.1704    5.0806 C.ar    1  UNL1        0.0031
     10 C          58.0544   91.9930    4.2642 C.ar    1  UNL1        0.0369
     11 C          59.5341   91.8062    4.4240 C.ar    1  UNL1        0.1384
     12 C          60.0615   90.7967    5.4002 C.ar    1  UNL1        0.0369
     13 O          60.4864   92.6288    3.6077 O.3     1  UNL1       -0.4792
     14 C          60.1387   92.9980    2.1961 C.3     1  UNL1        0.1661
     15 C          59.9908   92.6176    0.7527 C.3     1  UNL1        0.0472
     16 C          59.6843   94.0179    1.1945 C.3     1  UNL1        0.0472
     17 C          62.1796   86.3597   11.1923 C.2     1  UNL1        0.2536
     18 O          62.6130   87.7925   11.2874 O.2     1  UNL1       -0.2697
     19 N          61.2189   85.9363   10.1210 N.am    1  UNL1       -0.2657
     20 H          60.9344   84.9958   10.0586 H       1  UNL1        0.1566
     21 C          64.2893   82.3218   15.0968 C.3     1  UNL1        0.0737
     22 C          63.7619   83.3313   14.1207 C.ar    1  UNL1        0.1396
     23 N          62.9863   82.8787   12.9191 N.ar    1  UNL1       -0.2290
     24 C          62.4589   83.8882   11.9430 C.ar    1  UNL1        0.1063
     25 C          62.7070   85.3502   12.1684 C.ar    1  UNL1        0.0919
     26 C          63.4825   85.8028   13.3699 C.ar    1  UNL1        0.1063
     27 N          64.0100   84.7933   14.3461 N.ar    1  UNL1       -0.2290
@<TRIPOS>BOND
     1    21    22    1
     2    22    23   ar
     3    23    24   ar
     4    24    25   ar
     5    25    17    1
     6    17    18    2
     7    17    19   am
     8    19     1    1
     9     1     2   ar
    10     2     3   ar
    11     3     4   ar
    12     4     7    1
    13     7     8   ar
    14     8     9   ar
    15     9    10   ar
    16    10    11   ar
    17    11    13    1
    18    13    14    1
    19    14    15    1
    20    15    16    1
    21    11    12   ar
    22     4     5   ar
    23     5     6   ar
    24    25    26   ar
    25    26    27   ar
    26    27    22   ar
    27     6     1   ar
    28    12     7   ar
    29    16    14    1
    30    19    20    1
@<TRIPOS>MOLECULE
*****
 27 30 0 0 0
SMALL
GASTEIGER

@<TRIPOS>ATOM
      1 C          59.1759   91.9616    3.9578 C.ar    1  UNL1        0.1344
      2 C          57.9728   91.4986    4.7249 C.ar    1  UNL1        0.0345
      3 C          58.1384   90.5683    5.8898 C.ar    1  UNL1        0.0044
      4 C          59.5072   90.1009    6.2877 C.ar    1  UNL1        0.0194
      5 C          60.7102   90.5639    5.5206 C.ar    1  UNL1        0.1003
      6 N          60.5445   91.4943    4.3557 N.ar    1  UNL1       -0.2290
      7 C          59.6728   89.1706    7.4526 C.ar    1  UNL1        0.0045
      8 C          59.2227   87.7439    7.3429 C.ar    1  UNL1        0.0002
      9 C          59.3883   86.8136    8.5078 C.ar    1  UNL1        0.0031
     10 C          60.0041   87.3099    9.7824 C.ar    1  UNL1        0.0369
     11 C          60.4542   88.7366    9.8920 C.ar    1  UNL1        0.1384
     12 C          60.2886   89.6669    8.7271 C.ar    1  UNL1        0.0369
     13 O          61.0700   89.2329   11.1666 O.3     1  UNL1       -0.4792
     14 C          62.2576   90.1479   11.1192 C.3     1  UNL1        0.1661
     15 C          63.3877   90.8466   11.8153 C.3     1  UNL1        0.0472
     16 C          63.1845   91.0340   10.3410 C.3     1  UNL1        0.0472
     17 C          60.1577   93.1346    1.8578 C.2     1  UNL1        0.2536
     18 O          61.4707   92.4468    2.0875 O.2     1  UNL1       -0.2697
     19 N          59.0102   92.8920    2.7929 N.am    1  UNL1       -0.2657
     20 H          58.1484   93.3433    2.6421 H       1  UNL1        0.1566
     21 C          59.4951   96.8559   -2.8019 C.3     1  UNL1        0.0737
     22 C          59.6607   95.9256   -1.6370 C.ar    1  UNL1        0.1396
     23 N          59.8198   94.4524   -1.8704 N.ar    1  UNL1       -0.2290
     24 C          59.9854   93.5221   -0.7055 C.ar    1  UNL1        0.1063
     25 C          59.9920   94.0649    0.6928 C.ar    1  UNL1        0.0919
     26 C          59.8330   95.5380    0.9262 C.ar    1  UNL1        0.1063
     27 N          59.6673   96.4684   -0.2387 N.ar    1  UNL1       -0.2290
@<TRIPOS>BOND
     1    21    22    1
     2    22    23   ar
     3    23    24   ar
     4    24    25   ar
     5    25    17    1
     6    17    18    2
     7    17    19   am
     8    19     1    1
     9     1     2   ar
    10     2     3   ar
    11     3     4   ar
    12     4     7    1
    13     7     8   ar
    14     8     9   ar
    15     9    10   ar
    16    10    11   ar
    17    11    13    1
    18    13    14    1
    19    14    15    1
    20    15    16    1
    21    11    12   ar
    22     4     5   ar
    23     5     6   ar
    24    25    26   ar
    25    26    27   ar
    26    27    22   ar
    27     6     1   ar
    28    12     7   ar
    29    16    14    1
    30    19    20    1
@<TRIPOS>MOLECULE
*****
 27 30 0 0 0
SMALL
GASTEIGER

@<TRIPOS>ATOM
      1 C          61.4877   87.1427    9.1383 C.ar    1  UNL1        0.1344
      2 C          62.3931   86.0357    8.6857 C.ar    1  UNL1        0.0345
      3 C          62.7677   84.9373    9.6361 C.ar    1  UNL1        0.0044
      4 C          62.2368   84.9459   11.0390 C.ar    1  UNL1        0.0194
      5 C          61.3315   86.0530   11.4915 C.ar    1  UNL1        0.1003
      6 N          60.9569   87.1514   10.5411 N.ar    1  UNL1       -0.2290
      7 C          62.6113   83.8475   11.9894 C.ar    1  UNL1        0.0045
      8 C          62.7508   82.4396   11.4910 C.ar    1  UNL1        0.0002
      9 C          63.1253   81.3412   12.4414 C.ar    1  UNL1        0.0031
     10 C          63.3604   81.6507   13.8902 C.ar    1  UNL1        0.0369
     11 C          63.2210   83.0586   14.3885 C.ar    1  UNL1        0.1384
     12 C          62.8465   84.1570   13.4382 C.ar    1  UNL1        0.0369
     13 O          63.4561   83.3681   15.8373 O.3     1  UNL1       -0.4792
     14 C          63.2040   84.7516   16.3592 C.3     1  UNL1        0.1661
     15 C          62.3478   85.7141   17.1275 C.3     1  UNL1        0.0472
     16 C          63.6237   86.1852   16.4948 C.3     1  UNL1        0.0472
     17 C          59.7398   88.2761    7.5858 C.2     1  UNL1        0.2536
     18 O          58.7410   87.2126    7.9340 O.2     1  UNL1       -0.2697
     19 N          61.1132   88.2412    8.1879 N.am    1  UNL1       -0.2657
     20 H          61.7688   88.9391    7.9593 H       1  UNL1        0.1566
     21 C          58.2417   92.6697    3.7842 C.3     1  UNL1        0.0737
     22 C          58.6162   91.5713    4.7346 C.ar    1  UNL1        0.1396
     23 N          60.0556   91.1849    4.9046 N.ar    1  UNL1       -0.2290
     24 C          60.4301   90.0865    5.8549 C.ar    1  UNL1        0.1063
     25 C          59.3653   89.3745    6.6354 C.ar    1  UNL1        0.0919
     26 C          57.9259   89.7609    6.4654 C.ar    1  UNL1        0.1063
     27 N          57.5514   90.8593    5.5151 N.ar    1  UNL1       -0.2290
@<TRIPOS>BOND
     1    21    22    1
     2    22    23   ar
     3    23    24   ar
     4    24    25   ar
     5    25    17    1
     6    17    18    2
     7    17    19   am
     8    19     1    1
     9     1     2   ar
    10     2     3   ar
    11     3     4   ar
    12     4     7    1
    13     7     8   ar
    14     8     9   ar
    15     9    10   ar
    16    10    11   ar
    17    11    13    1
    18    13    14    1
    19    14    15    1
    20    15    16    1
    21    11    12   ar
    22     4     5   ar
    23     5     6   ar
    24    25    26   ar
    25    26    27   ar
    26    27    22   ar
    27     6     1   ar
    28    12     7   ar
    29    16    14    1
    30    19    20    1
