@<TRIPOS>MOLECULE
*****
 40 43 0 0 0
SMALL
GASTEIGER

@<TRIPOS>ATOM
      1 C          62.3904   85.3989   10.8595 C.ar    1  UNL1        0.1394
      2 C          63.0899   86.0453   12.0183 C.ar    1  UNL1        0.0382
      3 C          63.0092   87.5309   12.2091 C.ar    1  UNL1        0.0193
      4 C          62.2291   88.3702   11.2412 C.ar    1  UNL1        0.0694
      5 C          61.5296   87.7238   10.0823 C.ar    1  UNL1        0.0178
      6 C          60.7494   88.5630    9.1143 C.ar    1  UNL1        0.0014
      7 C          60.0500   87.9166    7.9555 C.ar    1  UNL1        0.0000
      8 C          60.1307   86.4310    7.7646 C.ar    1  UNL1        0.0001
      9 C          60.9108   85.5918    8.7326 C.ar    1  UNL1        0.0031
     10 C          61.6103   86.2382    9.8914 C.ar    1  UNL1        0.0353
     11 O          62.4711   83.9133   10.6686 O.3     1  UNL1       -0.4691
     12 C          62.8489   83.0287   11.8196 C.3     1  UNL1        0.2242
     13 C          63.5450   84.8104   15.8928 C.ar    1  UNL1        0.1387
     14 C          64.6903   84.6541   14.9369 C.ar    1  UNL1        0.0367
     15 C          64.4582   84.0602   13.5791 C.ar    1  UNL1        0.0027
     16 C          63.0809   83.6226   13.1773 C.ar    1  UNL1        0.0228
     17 C          61.9356   83.7789   14.1333 C.ar    1  UNL1        0.0027
     18 C          62.1676   84.3728   15.4910 C.ar    1  UNL1        0.0367
     19 C          62.7827   86.3676   17.8277 C.3     1  UNL1        0.2525
     20 O          63.7771   85.4043   17.2505 O.3     1  UNL1       -0.4714
     21 C          62.9946   81.5501   11.6129 C.2     1  UNL1        0.0943
     22 O          62.9335   80.6190   12.7873 O.co2   1  UNL1       -0.5452
     23 O          63.2013   81.0027   10.2318 O.co2   1  UNL1       -0.5452
     24 N          62.1484   89.8558   11.4320 N.pl3   1  UNL1       -0.1850
     25 S          63.2613   90.5844   12.1253 S.O2    1  UNL1        0.0763
     26 O          64.0961   90.4919   10.8826 O.2     1  UNL1       -0.1497
     27 O          62.4265   90.6770   13.3680 O.2     1  UNL1       -0.1497
     28 C          64.3741   91.3130   12.8186 C.ar    1  UNL1        0.1175
     29 C          65.0496   92.4690   12.1423 C.ar    1  UNL1       -0.0036
     30 C          64.6123   92.8964   10.7726 C.3     1  UNL1        0.0324
     31 C          66.1624   93.1976   12.8356 C.ar    1  UNL1       -0.0072
     32 C          66.5998   92.7703   14.2053 C.ar    1  UNL1       -0.0224
     33 C          67.7126   93.4989   14.8986 C.3     1  UNL1        0.0310
     34 C          65.9243   91.6143   14.8817 C.ar    1  UNL1       -0.0072
     35 C          64.8114   90.8857   14.1883 C.ar    1  UNL1       -0.0036
     36 C          64.1359   89.7297   14.8647 C.3     1  UNL1        0.0324
     37 C          60.9549   90.6128   10.9296 C.3     1  UNL1        0.1571
     38 C          59.6434   90.5094   11.6502 C.2     1  UNL1        0.0722
     39 O          58.6140   91.5890   11.4927 O.co2   1  UNL1       -0.5474
     40 O          59.3613   89.3264   12.5283 O.co2   1  UNL1       -0.5474
@<TRIPOS>UNITY_ATOM_ATTR
22 1
charge -1
39 1
charge -1
@<TRIPOS>BOND
     1    19    20    1
     2    20    13    1
     3    13    14   ar
     4    14    15   ar
     5    15    16   ar
     6    16    12    1
     7    12    11    1
     8    11     1    1
     9     1     2   ar
    10     2     3   ar
    11     3     4   ar
    12     4    24    1
    13    24    37    1
    14    37    38    1
    15    38    39   ar
    16    38    40   ar
    17    24    25    1
    18    25    26    2
    19    25    27    2
    20    25    28    1
    21    28    29   ar
    22    29    30    1
    23    29    31   ar
    24    31    32   ar
    25    32    33    1
    26    32    34   ar
    27    34    35   ar
    28    35    36    1
    29     4     5   ar
    30     5     6   ar
    31     6     7   ar
    32     7     8   ar
    33     8     9   ar
    34     9    10   ar
    35    12    21    1
    36    21    22   ar
    37    21    23   ar
    38    16    17   ar
    39    17    18   ar
    40    18    13   ar
    41    10     1   ar
    42    35    28   ar
    43    10     5   ar
@<TRIPOS>MOLECULE
*****
 40 43 0 0 0
SMALL
GASTEIGER

@<TRIPOS>ATOM
      1 C          62.5321   86.8135   11.6451 C.ar    1  UNL1        0.1394
      2 C          62.3678   88.2292   11.1774 C.ar    1  UNL1        0.0382
      3 C          62.9976   89.3515   11.9479 C.ar    1  UNL1        0.0193
      4 C          63.7917   89.0582   13.1862 C.ar    1  UNL1        0.0694
      5 C          63.9561   87.6424   13.6539 C.ar    1  UNL1        0.0178
      6 C          64.7502   87.3491   14.8922 C.ar    1  UNL1        0.0014
      7 C          64.9145   85.9334   15.3598 C.ar    1  UNL1        0.0000
      8 C          64.2848   84.8111   14.5893 C.ar    1  UNL1        0.0001
      9 C          63.4907   85.1044   13.3511 C.ar    1  UNL1        0.0031
     10 C          63.3263   86.5201   12.8834 C.ar    1  UNL1        0.0353
     11 O          61.9024   85.6911   10.8745 O.3     1  UNL1       -0.4691
     12 C          61.8717   85.7351    9.3755 C.3     1  UNL1        0.2242
     13 C          59.0846   88.5678    7.2641 C.ar    1  UNL1        0.1387
     14 C          60.1509   89.1031    8.1732 C.ar    1  UNL1        0.0367
     15 C          61.0799   88.1588    8.8771 C.ar    1  UNL1        0.0027
     16 C          60.9427   86.6793    8.6717 C.ar    1  UNL1        0.0228
     17 C          59.8764   86.1440    7.7625 C.ar    1  UNL1        0.0027
     18 C          58.9474   87.0882    7.0587 C.ar    1  UNL1        0.0367
     19 C          58.7067   90.5562    5.6352 C.3     1  UNL1        0.2525
     20 O          58.1556   89.5120    6.5603 O.3     1  UNL1       -0.4714
     21 C          62.7702   84.8348    8.5802 C.2     1  UNL1        0.0943
     22 O          62.7134   84.8526    7.0814 O.co2   1  UNL1       -0.5452
     23 O          63.7253   83.9169    9.2838 O.co2   1  UNL1       -0.5452
     24 N          64.4214   90.1805   13.9567 N.pl3   1  UNL1       -0.1850
     25 S          64.9060   91.4046   13.2377 S.O2    1  UNL1        0.0763
     26 O          63.5038   91.9358   13.1970 O.2     1  UNL1       -0.1497
     27 O          66.3081   90.8735   13.2784 O.2     1  UNL1       -0.1497
     28 C          65.3905   92.6287   12.5188 C.ar    1  UNL1        0.1175
     29 C          65.0929   92.8085   11.0597 C.ar    1  UNL1       -0.0036
     30 C          64.3107   91.7644   10.3195 C.3     1  UNL1        0.0324
     31 C          65.5774   94.0326   10.3407 C.ar    1  UNL1       -0.0072
     32 C          66.3596   95.0768   11.0809 C.ar    1  UNL1       -0.0224
     33 C          66.8442   96.3008   10.3619 C.3     1  UNL1        0.0310
     34 C          66.6573   94.8969   12.5400 C.ar    1  UNL1       -0.0072
     35 C          66.1727   93.6728   13.2590 C.ar    1  UNL1       -0.0036
     36 C          66.4703   93.4929   14.7181 C.3     1  UNL1        0.0324
     37 C          64.5667   90.0788   15.4462 C.3     1  UNL1        0.1571
     38 C          63.4569   90.5444   16.3415 C.2     1  UNL1        0.0722
     39 O          63.4115   91.9721   16.7992 O.co2   1  UNL1       -0.5474
     40 O          62.3926   89.5822   16.7791 O.co2   1  UNL1       -0.5474
@<TRIPOS>UNITY_ATOM_ATTR
22 1
charge -1
39 1
charge -1
@<TRIPOS>BOND
     1    19    20    1
     2    20    13    1
     3    13    14   ar
     4    14    15   ar
     5    15    16   ar
     6    16    12    1
     7    12    11    1
     8    11     1    1
     9     1     2   ar
    10     2     3   ar
    11     3     4   ar
    12     4    24    1
    13    24    37    1
    14    37    38    1
    15    38    39   ar
    16    38    40   ar
    17    24    25    1
    18    25    26    2
    19    25    27    2
    20    25    28    1
    21    28    29   ar
    22    29    30    1
    23    29    31   ar
    24    31    32   ar
    25    32    33    1
    26    32    34   ar
    27    34    35   ar
    28    35    36    1
    29     4     5   ar
    30     5     6   ar
    31     6     7   ar
    32     7     8   ar
    33     8     9   ar
    34     9    10   ar
    35    12    21    1
    36    21    22   ar
    37    21    23   ar
    38    16    17   ar
    39    17    18   ar
    40    18    13   ar
    41    10     1   ar
    42    35    28   ar
    43    10     5   ar
@<TRIPOS>MOLECULE
*****
 40 43 0 0 0
SMALL
GASTEIGER

@<TRIPOS>ATOM
      1 C          62.8646   89.5355   12.4805 C.ar    1  UNL1        0.1394
      2 C          63.4046   90.1923   11.2448 C.ar    1  UNL1        0.0382
      3 C          64.3657   91.3378   11.3632 C.ar    1  UNL1        0.0193
      4 C          64.7870   91.8264   12.7173 C.ar    1  UNL1        0.0694
      5 C          64.2470   91.1696   13.9532 C.ar    1  UNL1        0.0178
      6 C          64.6682   91.6583   15.3073 C.ar    1  UNL1        0.0014
      7 C          64.1283   91.0015   16.5430 C.ar    1  UNL1        0.0000
      8 C          63.1671   89.8560   16.4246 C.ar    1  UNL1        0.0001
      9 C          62.7459   89.3673   15.0704 C.ar    1  UNL1        0.0031
     10 C          63.2858   90.0241   13.8347 C.ar    1  UNL1        0.0353
     11 O          61.9035   88.3900   12.3621 O.3     1  UNL1       -0.4691
     12 C          60.7675   88.4620   11.3852 C.3     1  UNL1        0.2242
     13 C          60.7924   85.8654    7.7100 C.ar    1  UNL1        0.1387
     14 C          62.0087   85.9386    8.5848 C.ar    1  UNL1        0.0367
     15 C          62.0004   86.8042    9.8098 C.ar    1  UNL1        0.0027
     16 C          60.7758   87.5964   10.1601 C.ar    1  UNL1        0.0228
     17 C          59.5595   87.5232    9.2853 C.ar    1  UNL1        0.0027
     18 C          59.5678   86.6577    8.0602 C.ar    1  UNL1        0.0367
     19 C          62.0719   84.3372    6.0434 C.3     1  UNL1        0.2525
     20 O          60.8007   84.9998    6.4849 O.3     1  UNL1       -0.4714
     21 C          59.6232   89.3996   11.6333 C.2     1  UNL1        0.0943
     22 O          58.6423   89.1118   12.7310 O.co2   1  UNL1       -0.5452
     23 O          59.4598   90.6249   10.7837 O.co2   1  UNL1       -0.5452
     24 N          65.7481   92.9719   12.8358 N.pl3   1  UNL1       -0.1850
     25 S          66.1433   93.7487   11.6149 S.O2    1  UNL1        0.0763
     26 O          65.4085   92.7662   10.7519 O.2     1  UNL1       -0.1497
     27 O          66.8781   94.7312   12.4778 O.2     1  UNL1       -0.1497
     28 C          66.5384   94.5255   10.3940 C.ar    1  UNL1        0.1175
     29 C          67.4959   93.9310    9.4042 C.ar    1  UNL1       -0.0036
     30 C          68.0582   92.5597    9.6352 C.3     1  UNL1        0.0324
     31 C          67.8911   94.7077    8.1834 C.ar    1  UNL1       -0.0072
     32 C          67.3287   96.0791    7.9523 C.ar    1  UNL1       -0.0224
     33 C          67.7239   96.8558    6.7315 C.3     1  UNL1        0.0310
     34 C          66.3712   96.6736    8.9422 C.ar    1  UNL1       -0.0072
     35 C          65.9761   95.8967   10.1631 C.ar    1  UNL1       -0.0036
     36 C          65.0186   96.4912   11.1529 C.3     1  UNL1        0.0324
     37 C          66.3141   93.3407   14.1750 C.3     1  UNL1        0.1571
     38 C          67.6141   92.7460   14.6294 C.2     1  UNL1        0.0722
     39 O          68.0293   92.8597   16.0662 O.co2   1  UNL1       -0.5474
     40 O          68.4988   92.0375   13.6468 O.co2   1  UNL1       -0.5474
@<TRIPOS>UNITY_ATOM_ATTR
22 1
charge -1
39 1
charge -1
@<TRIPOS>BOND
     1    19    20    1
     2    20    13    1
     3    13    14   ar
     4    14    15   ar
     5    15    16   ar
     6    16    12    1
     7    12    11    1
     8    11     1    1
     9     1     2   ar
    10     2     3   ar
    11     3     4   ar
    12     4    24    1
    13    24    37    1
    14    37    38    1
    15    38    39   ar
    16    38    40   ar
    17    24    25    1
    18    25    26    2
    19    25    27    2
    20    25    28    1
    21    28    29   ar
    22    29    30    1
    23    29    31   ar
    24    31    32   ar
    25    32    33    1
    26    32    34   ar
    27    34    35   ar
    28    35    36    1
    29     4     5   ar
    30     5     6   ar
    31     6     7   ar
    32     7     8   ar
    33     8     9   ar
    34     9    10   ar
    35    12    21    1
    36    21    22   ar
    37    21    23   ar
    38    16    17   ar
    39    17    18   ar
    40    18    13   ar
    41    10     1   ar
    42    35    28   ar
    43    10     5   ar
@<TRIPOS>MOLECULE
*****
 40 43 0 0 0
SMALL
GASTEIGER

@<TRIPOS>ATOM
      1 C          62.3838   89.7911   12.2646 C.ar    1  UNL1        0.1394
      2 C          62.9323   90.4726   11.0462 C.ar    1  UNL1        0.0382
      3 C          64.0622   91.4503   11.1783 C.ar    1  UNL1        0.0193
      4 C          64.6436   91.7464   12.5289 C.ar    1  UNL1        0.0694
      5 C          64.0951   91.0649   13.7475 C.ar    1  UNL1        0.0178
      6 C          64.6766   91.3611   15.0981 C.ar    1  UNL1        0.0014
      7 C          64.1281   90.6796   16.3165 C.ar    1  UNL1        0.0000
      8 C          62.9981   89.7020   16.1844 C.ar    1  UNL1        0.0001
      9 C          62.4167   89.4058   14.8338 C.ar    1  UNL1        0.0031
     10 C          62.9652   90.0873   13.6153 C.ar    1  UNL1        0.0353
     11 O          61.2539   88.8135   12.1324 O.3     1  UNL1       -0.4691
     12 C          61.0564   88.0646   10.8479 C.3     1  UNL1        0.2242
     13 C          63.2337   84.1896   10.1449 C.ar    1  UNL1        0.1387
     14 C          63.0427   85.1582    9.0156 C.ar    1  UNL1        0.0367
     15 C          62.3170   86.4498    9.2499 C.ar    1  UNL1        0.0027
     16 C          61.7822   86.7729   10.6135 C.ar    1  UNL1        0.0228
     17 C          61.9731   85.8043   11.7429 C.ar    1  UNL1        0.0027
     18 C          62.6989   84.5127   11.5086 C.ar    1  UNL1        0.0367
     19 C          64.0717   81.8896   11.0153 C.3     1  UNL1        0.2525
     20 O          63.9594   82.8980    9.9105 O.3     1  UNL1       -0.4714
     21 C          60.1332   88.6074    9.7976 C.2     1  UNL1        0.0943
     22 O          59.5701   87.6940    8.7494 O.co2   1  UNL1       -0.5452
     23 O          59.7731   90.0635    9.7954 O.co2   1  UNL1       -0.5452
     24 N          65.7736   92.7241   12.6611 N.pl3   1  UNL1       -0.1850
     25 S          66.1926   93.5500   11.4811 S.O2    1  UNL1        0.0763
     26 O          66.6898   94.6204   12.4068 O.2     1  UNL1       -0.1497
     27 O          65.6954   92.4796   10.5554 O.2     1  UNL1       -0.1497
     28 C          66.6116   94.3759   10.3011 C.ar    1  UNL1        0.1175
     29 C          67.6031   93.8292    9.3172 C.ar    1  UNL1       -0.0036
     30 C          68.1756   92.4567    9.5132 C.3     1  UNL1        0.0324
     31 C          68.0221   94.6550    8.1372 C.ar    1  UNL1       -0.0072
     32 C          67.4496   96.0276    7.9411 C.ar    1  UNL1       -0.0224
     33 C          67.8686   96.8534    6.7611 C.3     1  UNL1        0.0310
     34 C          66.4581   96.5743    8.9250 C.ar    1  UNL1       -0.0072
     35 C          66.0391   95.7484   10.1051 C.ar    1  UNL1       -0.0036
     36 C          65.0476   96.2950   11.0890 C.3     1  UNL1        0.0324
     37 C          66.4844   92.8759   13.9731 C.3     1  UNL1        0.1571
     38 C          67.7757   92.1519   14.2147 C.2     1  UNL1        0.0722
     39 O          68.2239   91.8652   15.6172 O.co2   1  UNL1       -0.5474
     40 O          68.6189   91.7145   13.0537 O.co2   1  UNL1       -0.5474
@<TRIPOS>UNITY_ATOM_ATTR
22 1
charge -1
39 1
charge -1
@<TRIPOS>BOND
     1    19    20    1
     2    20    13    1
     3    13    14   ar
     4    14    15   ar
     5    15    16   ar
     6    16    12    1
     7    12    11    1
     8    11     1    1
     9     1     2   ar
    10     2     3   ar
    11     3     4   ar
    12     4    24    1
    13    24    37    1
    14    37    38    1
    15    38    39   ar
    16    38    40   ar
    17    24    25    1
    18    25    26    2
    19    25    27    2
    20    25    28    1
    21    28    29   ar
    22    29    30    1
    23    29    31   ar
    24    31    32   ar
    25    32    33    1
    26    32    34   ar
    27    34    35   ar
    28    35    36    1
    29     4     5   ar
    30     5     6   ar
    31     6     7   ar
    32     7     8   ar
    33     8     9   ar
    34     9    10   ar
    35    12    21    1
    36    21    22   ar
    37    21    23   ar
    38    16    17   ar
    39    17    18   ar
    40    18    13   ar
    41    10     1   ar
    42    35    28   ar
    43    10     5   ar
@<TRIPOS>MOLECULE
*****
 40 43 0 0 0
SMALL
GASTEIGER

@<TRIPOS>ATOM
      1 C          63.4756   85.8567   14.0206 C.ar    1  UNL1        0.1394
      2 C          63.9070   86.8212   12.9559 C.ar    1  UNL1        0.0382
      3 C          64.1107   88.2686   13.2929 C.ar    1  UNL1        0.0193
      4 C          63.8831   88.7515   14.6946 C.ar    1  UNL1        0.0694
      5 C          63.4517   87.7870   15.7594 C.ar    1  UNL1        0.0178
      6 C          63.2241   88.2699   17.1612 C.ar    1  UNL1        0.0014
      7 C          62.7927   87.3055   18.2259 C.ar    1  UNL1        0.0000
      8 C          62.5889   85.8581   17.8889 C.ar    1  UNL1        0.0001
      9 C          62.8165   85.3752   16.4871 C.ar    1  UNL1        0.0031
     10 C          63.2479   86.3396   15.4224 C.ar    1  UNL1        0.0353
     11 O          63.2718   84.4094   13.6836 O.3     1  UNL1       -0.4691
     12 C          63.4031   83.9443   12.2636 C.3     1  UNL1        0.2242
     13 C          61.4238   86.2539    8.9472 C.ar    1  UNL1        0.1387
     14 C          60.8909   86.3449   10.3464 C.ar    1  UNL1        0.0367
     15 C          61.5507   85.5750   11.4518 C.ar    1  UNL1        0.0027
     16 C          62.7433   84.7141   11.1581 C.ar    1  UNL1        0.0228
     17 C          63.2763   84.6230    9.7589 C.ar    1  UNL1        0.0027
     18 C          62.6165   85.3929    8.6535 C.ar    1  UNL1        0.0367
     19 C          59.2675   87.0860    7.7607 C.3     1  UNL1        0.2525
     20 O          60.7640   87.0237    7.8418 O.3     1  UNL1       -0.4714
     21 C          64.1942   82.7092   11.9490 C.2     1  UNL1        0.0943
     22 O          64.9868   82.6298   10.6780 O.co2   1  UNL1       -0.5452
     23 O          64.1927   81.5537   12.9054 O.co2   1  UNL1       -0.5452
     24 N          64.0869   90.1989   15.0317 N.pl3   1  UNL1       -0.1850
     25 S          64.5902   91.1489   13.9856 S.O2    1  UNL1        0.0763
     26 O          63.1876   91.6189   13.7375 O.2     1  UNL1       -0.1497
     27 O          65.9929   90.6788   14.2337 O.2     1  UNL1       -0.1497
     28 C          65.0936   92.0988   12.9395 C.ar    1  UNL1        0.1175
     29 C          66.0698   93.1753   13.3114 C.ar    1  UNL1       -0.0036
     30 C          66.5426   93.3018   14.7292 C.3     1  UNL1        0.0324
     31 C          66.5731   94.1252   12.2653 C.ar    1  UNL1       -0.0072
     32 C          66.1003   93.9987   10.8474 C.ar    1  UNL1       -0.0224
     33 C          66.6037   94.9486    9.8014 C.3     1  UNL1        0.0310
     34 C          65.1242   92.9222   10.4755 C.ar    1  UNL1       -0.0072
     35 C          64.6208   91.9722   11.5217 C.ar    1  UNL1       -0.0036
     36 C          63.6446   90.8957   11.1498 C.3     1  UNL1        0.0324
     37 C          63.7873   90.6963   16.4147 C.3     1  UNL1        0.1571
     38 C          64.1080   92.1133   16.7880 C.2     1  UNL1        0.0722
     39 O          65.5068   92.4875   17.1794 O.co2   1  UNL1       -0.5474
     40 O          63.0298   93.1560   16.7698 O.co2   1  UNL1       -0.5474
@<TRIPOS>UNITY_ATOM_ATTR
22 1
charge -1
39 1
charge -1
@<TRIPOS>BOND
     1    19    20    1
     2    20    13    1
     3    13    14   ar
     4    14    15   ar
     5    15    16   ar
     6    16    12    1
     7    12    11    1
     8    11     1    1
     9     1     2   ar
    10     2     3   ar
    11     3     4   ar
    12     4    24    1
    13    24    37    1
    14    37    38    1
    15    38    39   ar
    16    38    40   ar
    17    24    25    1
    18    25    26    2
    19    25    27    2
    20    25    28    1
    21    28    29   ar
    22    29    30    1
    23    29    31   ar
    24    31    32   ar
    25    32    33    1
    26    32    34   ar
    27    34    35   ar
    28    35    36    1
    29     4     5   ar
    30     5     6   ar
    31     6     7   ar
    32     7     8   ar
    33     8     9   ar
    34     9    10   ar
    35    12    21    1
    36    21    22   ar
    37    21    23   ar
    38    16    17   ar
    39    17    18   ar
    40    18    13   ar
    41    10     1   ar
    42    35    28   ar
    43    10     5   ar
@<TRIPOS>MOLECULE
*****
 40 43 0 0 0
SMALL
GASTEIGER

@<TRIPOS>ATOM
      1 C          62.2004   89.7589   12.0310 C.ar    1  UNL1        0.1394
      2 C          62.7747   90.4820   10.8490 C.ar    1  UNL1        0.0382
      3 C          63.9146   91.4388   11.0365 C.ar    1  UNL1        0.0193
      4 C          64.4802   91.6724   12.4059 C.ar    1  UNL1        0.0694
      5 C          63.9059   90.9493   13.5880 C.ar    1  UNL1        0.0178
      6 C          64.4715   91.1829   14.9575 C.ar    1  UNL1        0.0014
      7 C          63.8972   90.4598   16.1395 C.ar    1  UNL1        0.0000
      8 C          62.7572   89.5030   15.9521 C.ar    1  UNL1        0.0001
      9 C          62.1916   89.2694   14.5826 C.ar    1  UNL1        0.0031
     10 C          62.7660   89.9925   13.4006 C.ar    1  UNL1        0.0353
     11 O          61.0604   88.8021   11.8436 O.3     1  UNL1       -0.4691
     12 C          61.0377   87.8860   10.6561 C.3     1  UNL1        0.2242
     13 C          63.3927   84.0521   10.7264 C.ar    1  UNL1        0.1387
     14 C          62.8102   84.5979   11.9963 C.ar    1  UNL1        0.0367
     15 C          62.0252   85.8759   11.9729 C.ar    1  UNL1        0.0027
     16 C          61.8227   86.6080   10.6795 C.ar    1  UNL1        0.0228
     17 C          62.4052   86.0623    9.4095 C.ar    1  UNL1        0.0027
     18 C          63.1902   84.7843    9.4329 C.ar    1  UNL1        0.0367
     19 C          64.5497   82.1464   12.0604 C.3     1  UNL1        0.2525
     20 O          64.1777   82.7741   10.7498 O.3     1  UNL1       -0.4714
     21 C          60.2299   88.2479    9.4450 C.2     1  UNL1        0.0943
     22 O          59.0375   87.4213    9.0644 O.co2   1  UNL1       -0.5452
     23 O          60.6145   89.4364    8.6146 O.co2   1  UNL1       -0.5452
     24 N          65.6201   92.6292   12.5934 N.pl3   1  UNL1       -0.1850
     25 S          66.0879   93.4728   11.4446 S.O2    1  UNL1        0.0763
     26 O          66.7873   94.3904   12.4031 O.2     1  UNL1       -0.1497
     27 O          65.3885   92.5552   10.4861 O.2     1  UNL1       -0.1497
     28 C          66.5556   94.3163   10.2959 C.ar    1  UNL1        0.1175
     29 C          65.9845   95.6882   10.0913 C.ar    1  UNL1       -0.0036
     30 C          64.9456   96.2165   11.0356 C.3     1  UNL1        0.0324
     31 C          66.4522   96.5317    8.9426 C.ar    1  UNL1       -0.0072
     32 C          67.4911   96.0034    7.9983 C.ar    1  UNL1       -0.0224
     33 C          67.9588   96.8469    6.8495 C.3     1  UNL1        0.0310
     34 C          68.0622   94.6315    8.2028 C.ar    1  UNL1       -0.0072
     35 C          67.5944   93.7880    9.3516 C.ar    1  UNL1       -0.0036
     36 C          68.1656   92.4161    9.5561 C.3     1  UNL1        0.0324
     37 C          66.2923   92.7424   13.9295 C.3     1  UNL1        0.1571
     38 C          67.6157   92.0757   14.1623 C.2     1  UNL1        0.0722
     39 O          68.0889   91.8161   15.5618 O.co2   1  UNL1       -0.5474
     40 O          68.4658   91.6685   12.9954 O.co2   1  UNL1       -0.5474
@<TRIPOS>UNITY_ATOM_ATTR
22 1
charge -1
39 1
charge -1
@<TRIPOS>BOND
     1    19    20    1
     2    20    13    1
     3    13    14   ar
     4    14    15   ar
     5    15    16   ar
     6    16    12    1
     7    12    11    1
     8    11     1    1
     9     1     2   ar
    10     2     3   ar
    11     3     4   ar
    12     4    24    1
    13    24    37    1
    14    37    38    1
    15    38    39   ar
    16    38    40   ar
    17    24    25    1
    18    25    26    2
    19    25    27    2
    20    25    28    1
    21    28    29   ar
    22    29    30    1
    23    29    31   ar
    24    31    32   ar
    25    32    33    1
    26    32    34   ar
    27    34    35   ar
    28    35    36    1
    29     4     5   ar
    30     5     6   ar
    31     6     7   ar
    32     7     8   ar
    33     8     9   ar
    34     9    10   ar
    35    12    21    1
    36    21    22   ar
    37    21    23   ar
    38    16    17   ar
    39    17    18   ar
    40    18    13   ar
    41    10     1   ar
    42    35    28   ar
    43    10     5   ar
@<TRIPOS>MOLECULE
*****
 40 43 0 0 0
SMALL
GASTEIGER

@<TRIPOS>ATOM
      1 C          60.9367   88.7632   10.0150 C.ar    1  UNL1        0.1394
      2 C          60.6873   87.2867   10.1030 C.ar    1  UNL1        0.0382
      3 C          61.4716   86.4499   11.0697 C.ar    1  UNL1        0.0193
      4 C          62.5054   87.0895   11.9484 C.ar    1  UNL1        0.0694
      5 C          62.7548   88.5661   11.8605 C.ar    1  UNL1        0.0178
      6 C          63.7886   89.2057   12.7392 C.ar    1  UNL1        0.0014
      7 C          64.0380   90.6822   12.6512 C.ar    1  UNL1        0.0000
      8 C          63.2536   91.5190   11.6845 C.ar    1  UNL1        0.0001
      9 C          62.2199   90.8794   10.8058 C.ar    1  UNL1        0.0031
     10 C          61.9705   89.4029   10.8938 C.ar    1  UNL1        0.0353
     11 O          60.1523   89.6000    9.0483 O.3     1  UNL1       -0.4691
     12 C          59.7586   89.0357    7.7155 C.3     1  UNL1        0.2242
     13 C          59.2084   91.7733    4.1867 C.ar    1  UNL1        0.1387
     14 C          58.0154   91.3063    4.9668 C.ar    1  UNL1        0.0367
     15 C          58.1988   90.3938    6.1431 C.ar    1  UNL1        0.0027
     16 C          59.5752   89.9482    6.5392 C.ar    1  UNL1        0.0228
     17 C          60.7683   90.4152    5.7591 C.ar    1  UNL1        0.0027
     18 C          60.5849   91.3277    4.5828 C.ar    1  UNL1        0.0367
     19 C          60.2040   93.0644    2.1638 C.3     1  UNL1        0.2525
     20 O          59.0250   92.6858    3.0104 O.3     1  UNL1       -0.4714
     21 C          59.5482   87.5587    7.5589 C.2     1  UNL1        0.0943
     22 O          58.2035   86.9583    7.8440 O.co2   1  UNL1       -0.5452
     23 O          60.6825   86.6823    7.1173 O.co2   1  UNL1       -0.5452
     24 N          63.2897   86.2527   12.9151 N.pl3   1  UNL1       -0.1850
     25 S          63.1214   84.7622   12.9251 S.O2    1  UNL1        0.0763
     26 O          64.6041   84.5958   13.0798 O.2     1  UNL1       -0.1497
     27 O          61.6388   84.9286   12.7704 O.2     1  UNL1       -0.1497
     28 C          62.9531   83.2717   12.9351 C.ar    1  UNL1        0.1175
     29 C          63.2223   82.4782   11.6910 C.ar    1  UNL1       -0.0036
     30 C          63.6599   83.1751   10.4369 C.3     1  UNL1        0.0324
     31 C          63.0540   80.9877   11.7010 C.ar    1  UNL1       -0.0072
     32 C          62.6164   80.2907   12.9551 C.ar    1  UNL1       -0.0224
     33 C          62.4481   78.8003   12.9651 C.3     1  UNL1        0.0310
     34 C          62.3472   81.0843   14.1993 C.ar    1  UNL1       -0.0072
     35 C          62.5155   82.5748   14.1892 C.ar    1  UNL1       -0.0036
     36 C          62.2463   83.3684   15.4333 C.3     1  UNL1        0.0324
     37 C          64.2423   86.9064   13.8718 C.3     1  UNL1        0.1571
     38 C          63.9561   86.8898   15.3441 C.2     1  UNL1        0.0722
     39 O          64.2519   85.6610   16.1519 O.co2   1  UNL1       -0.5474
     40 O          63.3739   88.1021   16.0086 O.co2   1  UNL1       -0.5474
@<TRIPOS>UNITY_ATOM_ATTR
22 1
charge -1
39 1
charge -1
@<TRIPOS>BOND
     1    19    20    1
     2    20    13    1
     3    13    14   ar
     4    14    15   ar
     5    15    16   ar
     6    16    12    1
     7    12    11    1
     8    11     1    1
     9     1     2   ar
    10     2     3   ar
    11     3     4   ar
    12     4    24    1
    13    24    37    1
    14    37    38    1
    15    38    39   ar
    16    38    40   ar
    17    24    25    1
    18    25    26    2
    19    25    27    2
    20    25    28    1
    21    28    29   ar
    22    29    30    1
    23    29    31   ar
    24    31    32   ar
    25    32    33    1
    26    32    34   ar
    27    34    35   ar
    28    35    36    1
    29     4     5   ar
    30     5     6   ar
    31     6     7   ar
    32     7     8   ar
    33     8     9   ar
    34     9    10   ar
    35    12    21    1
    36    21    22   ar
    37    21    23   ar
    38    16    17   ar
    39    17    18   ar
    40    18    13   ar
    41    10     1   ar
    42    35    28   ar
    43    10     5   ar
@<TRIPOS>MOLECULE
*****
 40 43 0 0 0
SMALL
GASTEIGER

@<TRIPOS>ATOM
      1 C          60.9261   88.7635   10.0208 C.ar    1  UNL1        0.1394
      2 C          60.6757   87.2874   10.1130 C.ar    1  UNL1        0.0382
      3 C          61.4621   86.4522   11.0793 C.ar    1  UNL1        0.0193
      4 C          62.4990   87.0930   11.9535 C.ar    1  UNL1        0.0694
      5 C          62.7495   88.5691   11.8614 C.ar    1  UNL1        0.0178
      6 C          63.7864   89.2099   12.7355 C.ar    1  UNL1        0.0014
      7 C          64.0368   90.6859   12.6433 C.ar    1  UNL1        0.0000
      8 C          63.2504   91.5211   11.6770 C.ar    1  UNL1        0.0001
      9 C          62.2135   90.8804   10.8028 C.ar    1  UNL1        0.0031
     10 C          61.9631   89.4043   10.8950 C.ar    1  UNL1        0.0353
     11 O          60.1397   89.5987    9.0544 O.3     1  UNL1       -0.4691
     12 C          59.7524   89.0359    7.7190 C.3     1  UNL1        0.2242
     13 C          59.2065   91.7792    4.1939 C.ar    1  UNL1        0.1387
     14 C          60.5826   91.3344    4.5921 C.ar    1  UNL1        0.0367
     15 C          60.7645   90.4200    5.7671 C.ar    1  UNL1        0.0027
     16 C          59.5705   89.9504    6.5440 C.ar    1  UNL1        0.0228
     17 C          58.1943   90.3952    6.1459 C.ar    1  UNL1        0.0027
     18 C          58.0124   91.3096    4.9708 C.ar    1  UNL1        0.0367
     19 C          60.2044   93.0725    2.1736 C.3     1  UNL1        0.2525
     20 O          59.0246   92.6936    3.0189 O.3     1  UNL1       -0.4714
     21 C          59.5471   87.5587    7.5586 C.2     1  UNL1        0.0943
     22 O          60.6866   86.6861    7.1225 O.co2   1  UNL1       -0.5452
     23 O          58.2023   86.9541    7.8344 O.co2   1  UNL1       -0.5452
     24 N          63.2855   86.2577   12.9199 N.pl3   1  UNL1       -0.1850
     25 S          63.1184   84.7670   12.9316 S.O2    1  UNL1        0.0763
     26 O          61.6337   84.9323   12.7969 O.2     1  UNL1       -0.1497
     27 O          64.6031   84.6018   13.0663 O.2     1  UNL1       -0.1497
     28 C          62.9514   83.2764   12.9433 C.ar    1  UNL1        0.1175
     29 C          62.5220   82.5797   14.2003 C.ar    1  UNL1       -0.0036
     30 C          62.2595   83.3735   15.4456 C.3     1  UNL1        0.0324
     31 C          62.3550   81.0891   14.2120 C.ar    1  UNL1       -0.0072
     32 C          62.6175   80.2952   12.9666 C.ar    1  UNL1       -0.0224
     33 C          62.4505   78.8046   12.9783 C.3     1  UNL1        0.0310
     34 C          63.0469   80.9919   11.7096 C.ar    1  UNL1       -0.0072
     35 C          63.2139   82.4826   11.6979 C.ar    1  UNL1       -0.0036
     36 C          63.6434   83.1794   10.4409 C.3     1  UNL1        0.0324
     37 C          64.2389   86.9131   13.8745 C.3     1  UNL1        0.1571
     38 C          63.9541   86.8988   15.3472 C.2     1  UNL1        0.0722
     39 O          63.3742   88.1126   16.0107 O.co2   1  UNL1       -0.5474
     40 O          64.2493   85.6706   16.1563 O.co2   1  UNL1       -0.5474
@<TRIPOS>UNITY_ATOM_ATTR
22 1
charge -1
39 1
charge -1
@<TRIPOS>BOND
     1    19    20    1
     2    20    13    1
     3    13    14   ar
     4    14    15   ar
     5    15    16   ar
     6    16    12    1
     7    12    11    1
     8    11     1    1
     9     1     2   ar
    10     2     3   ar
    11     3     4   ar
    12     4    24    1
    13    24    37    1
    14    37    38    1
    15    38    39   ar
    16    38    40   ar
    17    24    25    1
    18    25    26    2
    19    25    27    2
    20    25    28    1
    21    28    29   ar
    22    29    30    1
    23    29    31   ar
    24    31    32   ar
    25    32    33    1
    26    32    34   ar
    27    34    35   ar
    28    35    36    1
    29     4     5   ar
    30     5     6   ar
    31     6     7   ar
    32     7     8   ar
    33     8     9   ar
    34     9    10   ar
    35    12    21    1
    36    21    22   ar
    37    21    23   ar
    38    16    17   ar
    39    17    18   ar
    40    18    13   ar
    41    10     1   ar
    42    35    28   ar
    43    10     5   ar
@<TRIPOS>MOLECULE
*****
 40 43 0 0 0
SMALL
GASTEIGER

@<TRIPOS>ATOM
      1 C          62.3659   85.5882   10.9146 C.ar    1  UNL1        0.1394
      2 C          63.1002   86.1732   12.0843 C.ar    1  UNL1        0.0382
      3 C          63.0739   87.6540   12.3220 C.ar    1  UNL1        0.0193
      4 C          62.3131   88.5498   11.3899 C.ar    1  UNL1        0.0694
      5 C          61.5787   87.9647   10.2200 C.ar    1  UNL1        0.0178
      6 C          60.8180   88.8605    9.2879 C.ar    1  UNL1        0.0014
      7 C          60.0836   88.2754    8.1182 C.ar    1  UNL1        0.0000
      8 C          60.1100   86.7946    7.8805 C.ar    1  UNL1        0.0001
      9 C          60.8707   85.8989    8.8126 C.ar    1  UNL1        0.0031
     10 C          61.6051   86.4839    9.9824 C.ar    1  UNL1        0.0353
     11 O          62.3923   84.1073   10.6769 O.3     1  UNL1       -0.4691
     12 C          62.8173   83.1789   11.7757 C.3     1  UNL1        0.2242
     13 C          62.7643   78.7290   11.1076 C.ar    1  UNL1        0.1387
     14 C          63.0247   79.6570    9.9582 C.ar    1  UNL1        0.0367
     15 C          63.0424   81.1402   10.1809 C.ar    1  UNL1        0.0027
     16 C          62.7996   81.6956   11.5530 C.ar    1  UNL1        0.0228
     17 C          62.5391   80.7677   12.7024 C.ar    1  UNL1        0.0027
     18 C          62.5214   79.2844   12.4797 C.ar    1  UNL1        0.0367
     19 C          63.7374   76.6156    9.9516 C.3     1  UNL1        0.2525
     20 O          62.7466   77.2458   10.8849 O.3     1  UNL1       -0.4714
     21 C          63.2599   83.7336   13.0972 C.2     1  UNL1        0.0943
     22 O          64.7193   83.9488   13.3693 O.co2   1  UNL1       -0.5452
     23 O          62.2433   84.0733   14.1465 O.co2   1  UNL1       -0.5452
     24 N          62.2868   90.0306   11.6275 N.pl3   1  UNL1       -0.1850
     25 S          63.4426   90.7016   12.3087 S.O2    1  UNL1        0.0763
     26 O          62.6552   90.7634   13.5839 O.2     1  UNL1       -0.1497
     27 O          64.2300   90.6398   11.0335 O.2     1  UNL1       -0.1497
     28 C          64.5984   91.3725   12.9898 C.ar    1  UNL1        0.1175
     29 C          65.2735   92.5446   12.3414 C.ar    1  UNL1       -0.0036
     30 C          64.7929   93.0457   11.0118 C.3     1  UNL1        0.0324
     31 C          66.4293   93.2155   13.0225 C.ar    1  UNL1       -0.0072
     32 C          66.9100   92.7144   14.3521 C.ar    1  UNL1       -0.0224
     33 C          68.0658   93.3853   15.0333 C.3     1  UNL1        0.0310
     34 C          66.2349   91.5424   15.0006 C.ar    1  UNL1       -0.0072
     35 C          65.0790   90.8714   14.3194 C.ar    1  UNL1       -0.0036
     36 C          64.4039   89.6994   14.9679 C.3     1  UNL1        0.0324
     37 C          61.1047   90.8405   11.1840 C.3     1  UNL1        0.1571
     38 C          59.7554   90.5923   11.7905 C.2     1  UNL1        0.0722
     39 O          58.6066   91.4986   11.4607 O.co2   1  UNL1       -0.5474
     40 O          59.5549   89.4376   12.7269 O.co2   1  UNL1       -0.5474
@<TRIPOS>UNITY_ATOM_ATTR
22 1
charge -1
39 1
charge -1
@<TRIPOS>BOND
     1    19    20    1
     2    20    13    1
     3    13    14   ar
     4    14    15   ar
     5    15    16   ar
     6    16    12    1
     7    12    11    1
     8    11     1    1
     9     1     2   ar
    10     2     3   ar
    11     3     4   ar
    12     4    24    1
    13    24    37    1
    14    37    38    1
    15    38    39   ar
    16    38    40   ar
    17    24    25    1
    18    25    26    2
    19    25    27    2
    20    25    28    1
    21    28    29   ar
    22    29    30    1
    23    29    31   ar
    24    31    32   ar
    25    32    33    1
    26    32    34   ar
    27    34    35   ar
    28    35    36    1
    29     4     5   ar
    30     5     6   ar
    31     6     7   ar
    32     7     8   ar
    33     8     9   ar
    34     9    10   ar
    35    12    21    1
    36    21    22   ar
    37    21    23   ar
    38    16    17   ar
    39    17    18   ar
    40    18    13   ar
    41    10     1   ar
    42    35    28   ar
    43    10     5   ar
