@<TRIPOS>MOLECULE
*****
 36 38 0 0 0
SMALL
GASTEIGER

@<TRIPOS>ATOM
      1 N          66.4702   93.0045   12.3826 N.ar    1  UNL1       -0.2387
      2 N          67.6162   92.7173   13.3069 N.ar    1  UNL1       -0.1724
      3 C          67.1029   91.8683   14.4319 C.ar    1  UNL1        0.0861
      4 C          67.9109   91.3481   15.5836 C.3     1  UNL1        0.0542
      5 C          65.6396   91.6307   14.2029 C.ar    1  UNL1        0.1009
      6 C          65.2486   92.3330   12.9364 C.ar    1  UNL1        0.1493
      7 C          66.6632   95.4512    8.6108 C.3     1  UNL1        0.1155
      8 C          67.3562   94.1227    8.6793 C.3     1  UNL1        0.0315
      9 C          67.2919   93.3071    9.9366 C.3     1  UNL1        0.0269
     10 C          66.5346   93.8201   11.1254 C.3     1  UNL1        0.1067
     11 C          65.8415   95.1486   11.0569 C.3     1  UNL1        0.0269
     12 C          65.9059   95.9641    9.7996 C.3     1  UNL1        0.0315
     13 C          65.4726   96.8441    6.7691 C.3     1  UNL1        0.1740
     14 O          66.7275   96.2667    7.3535 O.3     1  UNL1       -0.3536
     15 C          64.7275   90.8313   15.0855 C.2     1  UNL1        0.2498
     16 O          63.9038   91.5202   16.1328 O.2     1  UNL1       -0.2700
     17 N          64.6390   89.3430   14.9207 N.am    1  UNL1       -0.3024
     18 H          65.1796   88.8908   14.2333 H       1  UNL1        0.1497
     19 C          63.7269   88.5437   15.8032 C.3     1  UNL1        0.0718
     20 C          62.7153   89.2409   16.6639 C.3     1  UNL1        0.0213
     21 C          63.8262   87.0471   15.8253 C.3     1  UNL1        0.0165
     22 C          63.0611   87.0154   17.1152 C.3     1  UNL1        0.0016
     23 C          64.5913   87.0790   14.5354 C.3     1  UNL1        0.0016
     24 C          63.9256   85.5505   15.8473 C.3     1  UNL1        0.0016
     25 N          63.8769   92.3590   12.3302 N.pl3   1  UNL1       -0.1990
     26 H          63.3594   93.1965   12.3191 H       1  UNL1        0.1753
     27 S          63.2935   91.1090   11.7407 S.O2    1  UNL1        0.0747
     28 O          62.6908   90.7635   13.0701 O.2     1  UNL1       -0.1499
     29 O          63.8962   91.4547   10.4113 O.2     1  UNL1       -0.1499
     30 C          62.7101   89.8591   11.1513 C.ar    1  UNL1        0.1252
     31 C          62.9492   88.5350   11.8143 C.ar    1  UNL1        0.0199
     32 C          62.3658   87.2850   11.2250 C.ar    1  UNL1       -0.0029
     33 C          61.5435   87.3592    9.9727 C.ar    1  UNL1       -0.0218
     34 C          60.9601   86.1092    9.3833 C.3     1  UNL1        0.0310
     35 C          61.3044   88.6833    9.3098 C.ar    1  UNL1       -0.0029
     36 C          61.8878   89.9333    9.8991 C.ar    1  UNL1        0.0199
@<TRIPOS>BOND
     1    13    14    1
     2     7    14    1
     3     7     8    1
     4     8     9    1
     5     9    10    1
     6    10     1    1
     7     1     2   ar
     8     2     3   ar
     9     3     4    1
    10     3     5   ar
    11     5    15    1
    12    15    16    2
    13    15    17   am
    14    17    19    1
    15    19    20    1
    16    19    21    1
    17    21    22    1
    18    21    23    1
    19    21    24    1
    20     5     6   ar
    21     6    25    1
    22    25    27    1
    23    27    28    2
    24    27    29    2
    25    27    30    1
    26    30    31   ar
    27    31    32   ar
    28    32    33   ar
    29    33    34    1
    30    33    35   ar
    31    35    36   ar
    32    10    11    1
    33    11    12    1
    34    12     7    1
    35     6     1   ar
    36    36    30   ar
    37    17    18    1
    38    25    26    1
@<TRIPOS>MOLECULE
*****
 36 38 0 0 0
SMALL
GASTEIGER

@<TRIPOS>ATOM
      1 N          63.1633   85.1494   15.0221 N.ar    1  UNL1       -0.2387
      2 N          62.7840   85.2728   16.4681 N.ar    1  UNL1       -0.1724
      3 C          62.9387   86.7105   16.8669 C.ar    1  UNL1        0.0861
      4 C          62.6664   87.2825   18.2266 C.3     1  UNL1        0.0542
      5 C          63.4136   87.4757   15.6674 C.ar    1  UNL1        0.1009
      6 C          63.5523   86.5109   14.5272 C.ar    1  UNL1        0.1493
      7 C          63.1381   81.3602   12.5950 C.3     1  UNL1        0.1155
      8 C          64.3234   82.2779   12.5405 C.3     1  UNL1        0.0315
      9 C          64.3318   83.5409   13.3496 C.3     1  UNL1        0.0269
     10 C          63.1549   83.8863   14.2131 C.3     1  UNL1        0.1067
     11 C          61.9696   82.9686   14.2675 C.3     1  UNL1        0.0269
     12 C          61.9613   81.7056   13.4584 C.3     1  UNL1        0.0315
     13 C          63.0198   80.1644   10.2915 C.3     1  UNL1        0.1740
     14 O          63.1298   80.0971   11.7859 O.3     1  UNL1       -0.3536
     15 C          63.6995   88.9473   15.6168 C.2     1  UNL1        0.2498
     16 O          62.8549   89.9030   16.4064 O.2     1  UNL1       -0.2700
     17 N          64.8299   89.4633   14.7766 N.am    1  UNL1       -0.3024
     18 H          65.3842   88.8361   14.2583 H       1  UNL1        0.1497
     19 C          65.1157   90.9349   14.7261 C.3     1  UNL1        0.0718
     20 C          64.9643   91.7712   15.9621 C.3     1  UNL1        0.0213
     21 C          65.5529   91.5703   13.4396 C.3     1  UNL1        0.0165
     22 C          64.1595   91.4370   12.9002 C.3     1  UNL1        0.0016
     23 C          66.9462   91.7036   13.9789 C.3     1  UNL1        0.0016
     24 C          65.9901   92.2058   12.1530 C.3     1  UNL1        0.0016
     25 N          64.0014   86.8484   13.1364 N.pl3   1  UNL1       -0.1990
     26 H          64.9622   86.9050   12.9295 H       1  UNL1        0.1753
     27 S          62.9864   87.0996   12.0608 S.O2    1  UNL1        0.0747
     28 O          62.9979   85.6413   11.7095 O.2     1  UNL1       -0.1499
     29 O          62.9750   88.5578   12.4121 O.2     1  UNL1       -0.1499
     30 C          61.9715   87.3506   10.9852 C.ar    1  UNL1        0.1252
     31 C          61.5014   88.7481   10.7091 C.ar    1  UNL1        0.0199
     32 C          60.4865   88.9993    9.6336 C.ar    1  UNL1       -0.0029
     33 C          59.9417   87.8530    8.8341 C.ar    1  UNL1       -0.0218
     34 C          58.9267   88.1041    7.7585 C.3     1  UNL1        0.0310
     35 C          60.4117   86.4555    9.1102 C.ar    1  UNL1       -0.0029
     36 C          61.4266   86.2044   10.1857 C.ar    1  UNL1        0.0199
@<TRIPOS>BOND
     1    13    14    1
     2     7    14    1
     3     7     8    1
     4     8     9    1
     5     9    10    1
     6    10     1    1
     7     1     2   ar
     8     2     3   ar
     9     3     4    1
    10     3     5   ar
    11     5    15    1
    12    15    16    2
    13    15    17   am
    14    17    19    1
    15    19    20    1
    16    19    21    1
    17    21    22    1
    18    21    23    1
    19    21    24    1
    20     5     6   ar
    21     6    25    1
    22    25    27    1
    23    27    28    2
    24    27    29    2
    25    27    30    1
    26    30    31   ar
    27    31    32   ar
    28    32    33   ar
    29    33    34    1
    30    33    35   ar
    31    35    36   ar
    32    10    11    1
    33    11    12    1
    34    12     7    1
    35     6     1   ar
    36    36    30   ar
    37    17    18    1
    38    25    26    1
@<TRIPOS>MOLECULE
*****
 36 38 0 0 0
SMALL
GASTEIGER

@<TRIPOS>ATOM
      1 N          63.0105   84.0236   14.9121 N.ar    1  UNL1       -0.2387
      2 N          62.6791   84.3006   16.3486 N.ar    1  UNL1       -0.1724
      3 C          63.0292   85.7302   16.6378 C.ar    1  UNL1        0.0861
      4 C          62.8610   86.4302   17.9537 C.3     1  UNL1        0.0542
      5 C          63.5769   86.3369   15.3800 C.ar    1  UNL1        0.1009
      6 C          63.5653   85.2821   14.3135 C.ar    1  UNL1        0.1493
      7 C          62.4401   80.1054   12.7738 C.3     1  UNL1        0.1155
      8 C          63.6846   80.9108   12.5445 C.3     1  UNL1        0.0315
      9 C          63.8747   82.2169   13.2572 C.3     1  UNL1        0.0269
     10 C          62.8204   82.7176   14.1993 C.3     1  UNL1        0.1067
     11 C          61.5759   81.9122   14.4287 C.3     1  UNL1        0.0269
     12 C          61.3858   80.6061   13.7159 C.3     1  UNL1        0.0315
     13 C          62.7127   78.6447   10.6426 C.3     1  UNL1        0.1740
     14 O          62.2500   78.7993   12.0611 O.3     1  UNL1       -0.3536
     15 C          64.0527   87.7501   15.2173 C.2     1  UNL1        0.2498
     16 O          65.4902   88.0243   14.8885 O.2     1  UNL1       -0.2700
     17 N          63.0908   88.8891   15.3835 N.am    1  UNL1       -0.3024
     18 H          62.1473   88.7091   15.5994 H       1  UNL1        0.1497
     19 C          63.5666   90.3022   15.2208 C.3     1  UNL1        0.0718
     20 C          63.7037   91.1904   16.4218 C.3     1  UNL1        0.0213
     21 C          63.9054   90.8272   13.8572 C.3     1  UNL1        0.0165
     22 C          65.1913   91.3852   14.3915 C.3     1  UNL1        0.0016
     23 C          62.6196   90.2693   13.3230 C.3     1  UNL1        0.0016
     24 C          64.2442   91.3523   12.4935 C.3     1  UNL1        0.0016
     25 N          64.0275   85.4555   12.8971 N.pl3   1  UNL1       -0.1990
     26 H          64.9729   85.3070   12.6661 H       1  UNL1        0.1753
     27 S          63.0492   85.8553   11.8325 S.O2    1  UNL1        0.0747
     28 O          63.0176   87.2494   12.3851 O.2     1  UNL1       -0.1499
     29 O          63.0808   84.4611   11.2800 O.2     1  UNL1       -0.1499
     30 C          62.0709   86.2551   10.7681 C.ar    1  UNL1        0.1252
     31 C          62.2124   85.7116    9.3771 C.ar    1  UNL1        0.0199
     32 C          61.2342   86.1114    8.3126 C.ar    1  UNL1       -0.0029
     33 C          60.1144   87.0546    8.6390 C.ar    1  UNL1       -0.0218
     34 C          59.1361   87.4544    7.5745 C.3     1  UNL1        0.0310
     35 C          59.9729   87.5980   10.0299 C.ar    1  UNL1       -0.0029
     36 C          60.9511   87.1983   11.0944 C.ar    1  UNL1        0.0199
@<TRIPOS>BOND
     1    13    14    1
     2     7    14    1
     3     7     8    1
     4     8     9    1
     5     9    10    1
     6    10     1    1
     7     1     2   ar
     8     2     3   ar
     9     3     4    1
    10     3     5   ar
    11     5    15    1
    12    15    16    2
    13    15    17   am
    14    17    19    1
    15    19    20    1
    16    19    21    1
    17    21    22    1
    18    21    23    1
    19    21    24    1
    20     5     6   ar
    21     6    25    1
    22    25    27    1
    23    27    28    2
    24    27    29    2
    25    27    30    1
    26    30    31   ar
    27    31    32   ar
    28    32    33   ar
    29    33    34    1
    30    33    35   ar
    31    35    36   ar
    32    10    11    1
    33    11    12    1
    34    12     7    1
    35     6     1   ar
    36    36    30   ar
    37    17    18    1
    38    25    26    1
@<TRIPOS>MOLECULE
*****
 36 38 0 0 0
SMALL
GASTEIGER

@<TRIPOS>ATOM
      1 N          63.4604   91.1206   10.7224 N.ar    1  UNL1       -0.2387
      2 N          64.2665   91.9844    9.7982 N.ar    1  UNL1       -0.1724
      3 C          65.2580   92.7484   10.6246 C.ar    1  UNL1        0.0861
      4 C          66.2659   93.7314   10.1069 C.3     1  UNL1        0.0542
      5 C          65.0648   92.3569   12.0597 C.ar    1  UNL1        0.1009
      6 C          63.9538   91.3509   12.1201 C.ar    1  UNL1        0.1493
      7 C          60.1443   88.3289    9.5143 C.3     1  UNL1        0.1155
      8 C          61.5744   87.8967    9.3811 C.3     1  UNL1        0.0315
      9 C          62.6798   88.8272    9.7839 C.3     1  UNL1        0.0269
     10 C          62.3550   90.1901   10.3197 C.3     1  UNL1        0.1067
     11 C          60.9249   90.6223   10.4529 C.3     1  UNL1        0.0269
     12 C          59.8195   89.6917   10.0501 C.3     1  UNL1        0.0315
     13 C          59.0701   86.7342    7.7670 C.3     1  UNL1        0.1740
     14 O          59.0389   87.3983    9.1116 O.3     1  UNL1       -0.3536
     15 C          65.8455   92.8796   13.2290 C.2     1  UNL1        0.2498
     16 O          65.9938   94.3585   13.4310 O.2     1  UNL1       -0.2700
     17 N          66.4779   91.9234   14.1964 N.am    1  UNL1       -0.3024
     18 H          66.3806   90.9527   14.0638 H       1  UNL1        0.1497
     19 C          67.2585   92.4461   15.3656 C.3     1  UNL1        0.0718
     20 C          66.5878   92.6255   16.6953 C.3     1  UNL1        0.0213
     21 C          68.7098   92.7896   15.2053 C.3     1  UNL1        0.0165
     22 C          68.5774   93.8435   16.2646 C.3     1  UNL1        0.0016
     23 C          68.8422   91.7358   14.1461 C.3     1  UNL1        0.0016
     24 C          70.1612   93.1331   15.0450 C.3     1  UNL1        0.0016
     25 N          63.4285   90.6910   13.3605 N.pl3   1  UNL1       -0.1990
     26 H          62.9674   91.2269   14.0456 H       1  UNL1        0.1753
     27 S          63.6057   89.2144   13.5570 S.O2    1  UNL1        0.0747
     28 O          64.9396   89.4598   14.1976 O.2     1  UNL1       -0.1499
     29 O          62.2717   88.9691   12.9164 O.2     1  UNL1       -0.1499
     30 C          63.7829   87.7380   13.7535 C.ar    1  UNL1        0.1252
     31 C          64.5327   87.2250   14.9471 C.ar    1  UNL1        0.0199
     32 C          64.7100   85.7485   15.1437 C.ar    1  UNL1       -0.0029
     33 C          64.1375   84.7851   14.1467 C.ar    1  UNL1       -0.0218
     34 C          64.3147   83.3086   14.3432 C.3     1  UNL1        0.0310
     35 C          63.3876   85.2981   12.9531 C.ar    1  UNL1       -0.0029
     36 C          63.2104   86.7745   12.7565 C.ar    1  UNL1        0.0199
@<TRIPOS>BOND
     1    13    14    1
     2     7    14    1
     3     7     8    1
     4     8     9    1
     5     9    10    1
     6    10     1    1
     7     1     2   ar
     8     2     3   ar
     9     3     4    1
    10     3     5   ar
    11     5    15    1
    12    15    16    2
    13    15    17   am
    14    17    19    1
    15    19    20    1
    16    19    21    1
    17    21    22    1
    18    21    23    1
    19    21    24    1
    20     5     6   ar
    21     6    25    1
    22    25    27    1
    23    27    28    2
    24    27    29    2
    25    27    30    1
    26    30    31   ar
    27    31    32   ar
    28    32    33   ar
    29    33    34    1
    30    33    35   ar
    31    35    36   ar
    32    10    11    1
    33    11    12    1
    34    12     7    1
    35     6     1   ar
    36    36    30   ar
    37    17    18    1
    38    25    26    1
@<TRIPOS>MOLECULE
*****
 36 38 0 0 0
SMALL
GASTEIGER

@<TRIPOS>ATOM
      1 N          62.8799   89.8855   10.4800 N.ar    1  UNL1       -0.2387
      2 N          63.6620   91.0281    9.9031 N.ar    1  UNL1       -0.1724
      3 C          64.3160   91.7613   11.0365 C.ar    1  UNL1        0.0861
      4 C          65.1937   92.9715   10.9139 C.3     1  UNL1        0.0542
      5 C          63.9382   91.0719   12.3140 C.ar    1  UNL1        0.1009
      6 C          63.0506   89.9125   11.9700 C.ar    1  UNL1        0.1493
      7 C          60.4486   86.9005    8.1500 C.3     1  UNL1        0.1155
      8 C          61.8428   86.5570    8.5839 C.3     1  UNL1        0.0315
      9 C          62.6532   87.5519    9.3606 C.3     1  UNL1        0.0269
     10 C          62.0695   88.8905    9.7034 C.3     1  UNL1        0.1067
     11 C          60.6754   89.2340    9.2695 C.3     1  UNL1        0.0269
     12 C          59.8649   88.2391    8.4928 C.3     1  UNL1        0.0315
     13 C          60.3212   84.7823    6.6511 C.3     1  UNL1        0.1740
     14 O          59.6382   85.9056    7.3733 O.3     1  UNL1       -0.3536
     15 C          64.3717   91.4715   13.6932 C.2     1  UNL1        0.2498
     16 O          63.4676   91.2251   14.8644 O.2     1  UNL1       -0.2700
     17 N          65.7094   92.1177   13.9012 N.am    1  UNL1       -0.3024
     18 H          66.3028   92.2795   13.1324 H       1  UNL1        0.1497
     19 C          66.1428   92.5173   15.2804 C.3     1  UNL1        0.0718
     20 C          65.2451   92.2570   16.4536 C.3     1  UNL1        0.0213
     21 C          67.4740   93.1773   15.4865 C.3     1  UNL1        0.0165
     22 C          67.1418   94.1799   14.4213 C.3     1  UNL1        0.0016
     23 C          67.8061   92.1747   16.5516 C.3     1  UNL1        0.0016
     24 C          68.8052   93.8372   15.6925 C.3     1  UNL1        0.0016
     25 N          62.4409   88.9494   12.9450 N.pl3   1  UNL1       -0.1990
     26 H          61.7892   89.2687   13.6103 H       1  UNL1        0.1753
     27 S          62.8241   87.4996   12.9064 S.O2    1  UNL1        0.0747
     28 O          61.5927   87.1955   12.1057 O.2     1  UNL1       -0.1499
     29 O          64.0555   87.8037   13.7071 O.2     1  UNL1       -0.1499
     30 C          63.2072   86.0499   12.8677 C.ar    1  UNL1        0.1252
     31 C          64.1822   85.5049   13.8689 C.ar    1  UNL1        0.0199
     32 C          64.5653   84.0552   13.8303 C.ar    1  UNL1       -0.0029
     33 C          63.9735   83.1505   12.7905 C.ar    1  UNL1       -0.0218
     34 C          64.3566   81.7007   12.7518 C.3     1  UNL1        0.0310
     35 C          62.9985   83.6955   11.7893 C.ar    1  UNL1       -0.0029
     36 C          62.6154   85.1452   11.8279 C.ar    1  UNL1        0.0199
@<TRIPOS>BOND
     1    13    14    1
     2     7    14    1
     3     7     8    1
     4     8     9    1
     5     9    10    1
     6    10     1    1
     7     1     2   ar
     8     2     3   ar
     9     3     4    1
    10     3     5   ar
    11     5    15    1
    12    15    16    2
    13    15    17   am
    14    17    19    1
    15    19    20    1
    16    19    21    1
    17    21    22    1
    18    21    23    1
    19    21    24    1
    20     5     6   ar
    21     6    25    1
    22    25    27    1
    23    27    28    2
    24    27    29    2
    25    27    30    1
    26    30    31   ar
    27    31    32   ar
    28    32    33   ar
    29    33    34    1
    30    33    35   ar
    31    35    36   ar
    32    10    11    1
    33    11    12    1
    34    12     7    1
    35     6     1   ar
    36    36    30   ar
    37    17    18    1
    38    25    26    1
@<TRIPOS>MOLECULE
*****
 36 38 0 0 0
SMALL
GASTEIGER

@<TRIPOS>ATOM
      1 N          64.5961   89.6313   13.9853 N.ar    1  UNL1       -0.2387
      2 N          64.6402   88.1597   14.2722 N.ar    1  UNL1       -0.1724
      3 C          63.6453   87.4828   13.3766 C.ar    1  UNL1        0.0861
      4 C          63.3596   86.0110   13.3296 C.3     1  UNL1        0.0542
      5 C          62.9864   88.5362   12.5361 C.ar    1  UNL1        0.1009
      6 C          63.5740   89.8640   12.9124 C.ar    1  UNL1        0.1493
      7 C          67.0920   92.7931   15.9913 C.3     1  UNL1        0.1155
      8 C          67.6844   91.9491   14.9020 C.3     1  UNL1        0.0315
      9 C          66.8525   90.8952   14.2333 C.3     1  UNL1        0.0269
     10 C          65.4281   90.6853   14.6540 C.3     1  UNL1        0.1067
     11 C          64.8356   91.5293   15.7433 C.3     1  UNL1        0.0269
     12 C          65.6676   92.5832   16.4119 C.3     1  UNL1        0.0315
     13 C          69.2057   94.3033   16.0284 C.3     1  UNL1        0.1740
     14 O          67.9239   93.8471   16.6599 O.3     1  UNL1       -0.3536
     15 C          61.9260   88.3027   11.5012 C.2     1  UNL1        0.2498
     16 O          60.4779   88.4428   11.8663 O.2     1  UNL1       -0.2700
     17 N          62.3138   87.9290   10.1012 N.am    1  UNL1       -0.3024
     18 H          63.2642   87.8370    9.8615 H       1  UNL1        0.1497
     19 C          61.2534   87.6956    9.0663 C.3     1  UNL1        0.0718
     20 C          60.2088   88.7420    8.8136 C.3     1  UNL1        0.0213
     21 C          61.2375   86.4157    8.2842 C.3     1  UNL1        0.0165
     22 C          59.8567   86.7338    7.7918 C.3     1  UNL1        0.0016
     23 C          62.6182   86.0977    8.7766 C.3     1  UNL1        0.0016
     24 C          61.2216   85.1358    7.5020 C.3     1  UNL1        0.0016
     25 N          63.2044   91.1914   12.3197 N.pl3   1  UNL1       -0.1990
     26 H          62.2907   91.5416   12.4279 H       1  UNL1        0.1753
     27 S          64.2271   91.9855   11.5621 S.O2    1  UNL1        0.0747
     28 O          63.8280   91.2899   10.2945 O.2     1  UNL1       -0.1499
     29 O          64.6261   92.6810   12.8298 O.2     1  UNL1       -0.1499
     30 C          65.2497   92.7794   10.8046 C.ar    1  UNL1        0.1252
     31 C          66.5288   92.1302   10.3658 C.ar    1  UNL1        0.0199
     32 C          67.5514   92.9240    9.6083 C.ar    1  UNL1       -0.0029
     33 C          67.2950   94.3672    9.2894 C.ar    1  UNL1       -0.0218
     34 C          68.3176   95.1612    8.5318 C.3     1  UNL1        0.0310
     35 C          66.0159   95.0164    9.7282 C.ar    1  UNL1       -0.0029
     36 C          64.9933   94.2225   10.4858 C.ar    1  UNL1        0.0199
@<TRIPOS>BOND
     1    13    14    1
     2     7    14    1
     3     7     8    1
     4     8     9    1
     5     9    10    1
     6    10     1    1
     7     1     2   ar
     8     2     3   ar
     9     3     4    1
    10     3     5   ar
    11     5    15    1
    12    15    16    2
    13    15    17   am
    14    17    19    1
    15    19    20    1
    16    19    21    1
    17    21    22    1
    18    21    23    1
    19    21    24    1
    20     5     6   ar
    21     6    25    1
    22    25    27    1
    23    27    28    2
    24    27    29    2
    25    27    30    1
    26    30    31   ar
    27    31    32   ar
    28    32    33   ar
    29    33    34    1
    30    33    35   ar
    31    35    36   ar
    32    10    11    1
    33    11    12    1
    34    12     7    1
    35     6     1   ar
    36    36    30   ar
    37    17    18    1
    38    25    26    1
@<TRIPOS>MOLECULE
*****
 36 38 0 0 0
SMALL
GASTEIGER

@<TRIPOS>ATOM
      1 N          62.7476   93.9821    1.1728 N.ar    1  UNL1       -0.2387
      2 N          63.8043   95.0011    1.4812 N.ar    1  UNL1       -0.1724
      3 C          64.3497   95.5116    0.1804 C.ar    1  UNL1        0.0861
      4 C          65.4258   96.5442    0.0201 C.3     1  UNL1        0.0542
      5 C          63.6300   94.8082   -0.9319 C.ar    1  UNL1        0.1009
      6 C          62.6398   93.8629   -0.3185 C.ar    1  UNL1        0.1493
      7 C          60.3258   91.6862    4.1917 C.3     1  UNL1        0.1155
      8 C          61.7500   91.2999    3.9225 C.3     1  UNL1        0.0315
      9 C          62.5572   92.0653    2.9162 C.3     1  UNL1        0.0269
     10 C          61.9403   93.2168    2.1791 C.3     1  UNL1        0.1067
     11 C          60.5162   93.6031    2.4484 C.3     1  UNL1        0.0269
     12 C          59.7089   92.8378    3.4547 C.3     1  UNL1        0.0315
     13 C          58.0414   91.1561    5.3099 C.3     1  UNL1        0.1740
     14 O          59.5186   90.9209    5.1980 O.3     1  UNL1       -0.3536
     15 C          63.8600   95.0138   -2.3998 C.2     1  UNL1        0.2498
     16 O          63.2916   96.2204   -3.0862 O.2     1  UNL1       -0.2700
     17 N          64.6584   94.0129   -3.1814 N.am    1  UNL1       -0.3024
     18 H          65.0314   93.2210   -2.7309 H       1  UNL1        0.1497
     19 C          64.8883   94.2186   -4.6492 C.3     1  UNL1        0.0718
     20 C          65.1112   95.6011   -5.1869 C.3     1  UNL1        0.0213
     21 C          64.8954   93.0420   -5.5794 C.3     1  UNL1        0.0165
     22 C          63.9981   92.2932   -4.6390 C.3     1  UNL1        0.0016
     23 C          65.7927   93.7907   -6.5198 C.3     1  UNL1        0.0016
     24 C          64.9024   91.8652   -6.5097 C.3     1  UNL1        0.0016
     25 N          61.7059   92.9574   -1.0655 N.pl3   1  UNL1       -0.1990
     26 H          62.0432   92.1227   -1.4639 H       1  UNL1        0.1753
     27 S          60.2580   93.3238   -1.2054 S.O2    1  UNL1        0.0747
     28 O          60.6479   94.6105   -1.8703 O.2     1  UNL1       -0.1499
     29 O          59.8682   92.0369   -0.5404 O.2     1  UNL1       -0.1499
     30 C          58.8102   93.6901   -1.3453 C.ar    1  UNL1        0.1252
     31 C          57.8066   92.6457   -1.7352 C.ar    1  UNL1        0.0199
     32 C          56.3588   93.0120   -1.8752 C.ar    1  UNL1       -0.0029
     33 C          55.9145   94.4227   -1.6252 C.ar    1  UNL1       -0.0218
     34 C          54.4666   94.7891   -1.7651 C.3     1  UNL1        0.0310
     35 C          56.9181   95.4671   -1.2352 C.ar    1  UNL1       -0.0029
     36 C          58.3659   95.1008   -1.0953 C.ar    1  UNL1        0.0199
@<TRIPOS>BOND
     1    13    14    1
     2     7    14    1
     3     7     8    1
     4     8     9    1
     5     9    10    1
     6    10     1    1
     7     1     2   ar
     8     2     3   ar
     9     3     4    1
    10     3     5   ar
    11     5    15    1
    12    15    16    2
    13    15    17   am
    14    17    19    1
    15    19    20    1
    16    19    21    1
    17    21    22    1
    18    21    23    1
    19    21    24    1
    20     5     6   ar
    21     6    25    1
    22    25    27    1
    23    27    28    2
    24    27    29    2
    25    27    30    1
    26    30    31   ar
    27    31    32   ar
    28    32    33   ar
    29    33    34    1
    30    33    35   ar
    31    35    36   ar
    32    10    11    1
    33    11    12    1
    34    12     7    1
    35     6     1   ar
    36    36    30   ar
    37    17    18    1
    38    25    26    1
@<TRIPOS>MOLECULE
*****
 36 38 0 0 0
SMALL
GASTEIGER

@<TRIPOS>ATOM
      1 N          63.9184   88.5493   14.9875 N.ar    1  UNL1       -0.2387
      2 N          63.4909   88.3926   16.4167 N.ar    1  UNL1       -0.1724
      3 C          63.1046   86.9591   16.6306 C.ar    1  UNL1        0.0861
      4 C          62.6154   86.3602   17.9159 C.3     1  UNL1        0.0542
      5 C          63.2932   86.2298   15.3335 C.ar    1  UNL1        0.1009
      6 C          63.7962   87.2125   14.3180 C.ar    1  UNL1        0.1493
      7 C          65.3211   92.3602   13.0486 C.3     1  UNL1        0.1155
      8 C          64.0267   91.7338   12.6217 C.3     1  UNL1        0.0315
      9 C          63.5592   90.4635   13.2680 C.3     1  UNL1        0.0269
     10 C          64.3860   89.8196   14.3412 C.3     1  UNL1        0.1067
     11 C          65.6803   90.4460   14.7681 C.3     1  UNL1        0.0269
     12 C          66.1478   91.7163   14.1218 C.3     1  UNL1        0.0315
     13 C          65.7729   93.7617   10.9081 C.3     1  UNL1        0.1740
     14 O          65.7886   93.6305   12.4023 O.3     1  UNL1       -0.3536
     15 C          63.0258   84.7734   15.0940 C.2     1  UNL1        0.2498
     16 O          61.9015   84.0890   15.8133 O.2     1  UNL1       -0.2700
     17 N          63.8828   84.0013   14.1350 N.am    1  UNL1       -0.3024
     18 H          64.6208   84.4504   13.6629 H       1  UNL1        0.1497
     19 C          63.6154   82.5449   13.8955 C.3     1  UNL1        0.0718
     20 C          63.6510   81.5776   15.0414 C.3     1  UNL1        0.0213
     21 C          63.3124   82.0559   12.5103 C.3     1  UNL1        0.0165
     22 C          62.0027   81.5050   12.9913 C.3     1  UNL1        0.0016
     23 C          64.6221   82.6068   12.0293 C.3     1  UNL1        0.0016
     24 C          63.0093   81.5668   11.1249 C.3     1  UNL1        0.0016
     25 N          64.1201   86.9114   12.8847 N.pl3   1  UNL1       -0.1990
     26 H          65.0462   86.7051   12.6222 H       1  UNL1        0.1753
     27 S          63.0328   86.9246   11.8513 S.O2    1  UNL1        0.0747
     28 O          63.1062   88.4216   11.7933 O.2     1  UNL1       -0.1499
     29 O          62.9595   85.4275   11.9094 O.2     1  UNL1       -0.1499
     30 C          61.9456   86.9378   10.8180 C.ar    1  UNL1        0.1252
     31 C          61.9710   85.9495    9.6900 C.ar    1  UNL1        0.0199
     32 C          60.8839   85.9627    8.6566 C.ar    1  UNL1       -0.0029
     33 C          59.7713   86.9642    8.7513 C.ar    1  UNL1       -0.0218
     34 C          58.6840   86.9775    7.7179 C.3     1  UNL1        0.0310
     35 C          59.7459   87.9526    9.8793 C.ar    1  UNL1       -0.0029
     36 C          60.8330   87.9394   10.9127 C.ar    1  UNL1        0.0199
@<TRIPOS>BOND
     1    13    14    1
     2     7    14    1
     3     7     8    1
     4     8     9    1
     5     9    10    1
     6    10     1    1
     7     1     2   ar
     8     2     3   ar
     9     3     4    1
    10     3     5   ar
    11     5    15    1
    12    15    16    2
    13    15    17   am
    14    17    19    1
    15    19    20    1
    16    19    21    1
    17    21    22    1
    18    21    23    1
    19    21    24    1
    20     5     6   ar
    21     6    25    1
    22    25    27    1
    23    27    28    2
    24    27    29    2
    25    27    30    1
    26    30    31   ar
    27    31    32   ar
    28    32    33   ar
    29    33    34    1
    30    33    35   ar
    31    35    36   ar
    32    10    11    1
    33    11    12    1
    34    12     7    1
    35     6     1   ar
    36    36    30   ar
    37    17    18    1
    38    25    26    1
@<TRIPOS>MOLECULE
*****
 36 38 0 0 0
SMALL
GASTEIGER

@<TRIPOS>ATOM
      1 N          64.8480   91.3911   12.6972 N.ar    1  UNL1       -0.2387
      2 N          64.6287   92.0101   11.3486 N.ar    1  UNL1       -0.1724
      3 C          63.4540   91.3290   10.7113 C.ar    1  UNL1        0.0861
      4 C          62.8858   91.6343    9.3571 C.3     1  UNL1        0.0542
      5 C          62.9473   90.2889   11.6660 C.ar    1  UNL1        0.1009
      6 C          63.8088   90.3273   12.8933 C.ar    1  UNL1        0.1493
      7 C          68.0595   92.5259   15.6380 C.3     1  UNL1        0.1155
      8 C          66.6237   92.4927   16.0710 C.3     1  UNL1        0.0315
      9 C          65.5533   92.1144   15.0908 C.3     1  UNL1        0.0269
     10 C          65.9185   91.7694   13.6775 C.3     1  UNL1        0.1067
     11 C          67.3542   91.8026   13.2444 C.3     1  UNL1        0.0269
     12 C          68.4247   92.1809   14.2247 C.3     1  UNL1        0.0315
     13 C          69.9591   94.1325   16.3865 C.3     1  UNL1        0.1740
     14 O          69.1300   92.9042   16.6183 O.3     1  UNL1       -0.3536
     15 C          61.7834   89.3715   11.4341 C.2     1  UNL1        0.2498
     16 O          60.6889   89.2757   12.4553 O.2     1  UNL1       -0.2700
     17 N          61.7141   88.5499   10.1811 N.am    1  UNL1       -0.3024
     18 H          62.4324   88.6127    9.5108 H       1  UNL1        0.1497
     19 C          60.5502   87.6325    9.9493 C.3     1  UNL1        0.0718
     20 C          59.3622   87.6824   10.8638 C.3     1  UNL1        0.0213
     21 C          60.5742   86.6653    8.8030 C.3     1  UNL1        0.0165
     22 C          61.9387   86.2035    9.2214 C.3     1  UNL1        0.0016
     23 C          59.2098   87.1272    8.3848 C.3     1  UNL1        0.0016
     24 C          60.5983   85.6981    7.6567 C.3     1  UNL1        0.0016
     25 N          63.6577   89.4550   14.1042 N.pl3   1  UNL1       -0.1990
     26 H          63.5025   89.8614   14.9874 H       1  UNL1        0.1753
     27 S          63.7430   87.9634   13.9695 S.O2    1  UNL1        0.0747
     28 O          63.6351   88.0920   12.4789 O.2     1  UNL1       -0.1499
     29 O          63.8508   87.8350   15.4601 O.2     1  UNL1       -0.1499
     30 C          63.8283   86.4720   13.8347 C.ar    1  UNL1        0.1252
     31 C          63.1338   85.7807   12.6989 C.ar    1  UNL1        0.0199
     32 C          63.2191   84.2892   12.5640 C.ar    1  UNL1       -0.0029
     33 C          63.9987   83.4890   13.5649 C.ar    1  UNL1       -0.0218
     34 C          64.0840   81.9975   13.4301 C.3     1  UNL1        0.0310
     35 C          64.6931   84.1803   14.7007 C.ar    1  UNL1       -0.0029
     36 C          64.6079   85.6717   14.8355 C.ar    1  UNL1        0.0199
@<TRIPOS>BOND
     1    13    14    1
     2     7    14    1
     3     7     8    1
     4     8     9    1
     5     9    10    1
     6    10     1    1
     7     1     2   ar
     8     2     3   ar
     9     3     4    1
    10     3     5   ar
    11     5    15    1
    12    15    16    2
    13    15    17   am
    14    17    19    1
    15    19    20    1
    16    19    21    1
    17    21    22    1
    18    21    23    1
    19    21    24    1
    20     5     6   ar
    21     6    25    1
    22    25    27    1
    23    27    28    2
    24    27    29    2
    25    27    30    1
    26    30    31   ar
    27    31    32   ar
    28    32    33   ar
    29    33    34    1
    30    33    35   ar
    31    35    36   ar
    32    10    11    1
    33    11    12    1
    34    12     7    1
    35     6     1   ar
    36    36    30   ar
    37    17    18    1
    38    25    26    1
