@<TRIPOS>MOLECULE
*****
 33 36 0 0 0
SMALL
GASTEIGER

@<TRIPOS>ATOM
      1 N          64.5698   91.7609   11.9010 N.ar    1  UNL1       -0.2570
      2 C          65.8911   92.4543   12.0532 C.ar    1  UNL1        0.1213
      3 C          66.5238   92.5738   13.4080 C.ar    1  UNL1        0.0935
      4 C          65.8351   91.9998   14.6106 C.ar    1  UNL1        0.2674
      5 O          66.4678   92.1192   15.9653 O.2     1  UNL1       -0.2667
      6 N          64.5137   91.3063   14.4583 N.ar    1  UNL1       -0.2428
      7 C          63.8811   91.1869   13.1036 C.ar    1  UNL1        0.3357
      8 O          62.5598   90.4935   12.9514 O.2     1  UNL1       -0.2461
      9 N          66.5798   93.0283   10.8506 N.pl3   1  UNL1       -0.2930
     10 C          67.6601   92.2485   10.1615 C.3     1  UNL1        0.0922
     11 C          68.3488   92.8225    8.9589 C.3     1  UNL1        0.0229
     12 C          67.9572   94.1763    8.4454 C.3     1  UNL1        0.0190
     13 C          66.8769   94.9562    9.1345 C.3     1  UNL1        0.0709
     14 N          66.4853   96.3101    8.6209 N.3     1  UNL1       -0.3208
     15 C          66.1882   94.3822   10.3370 C.3     1  UNL1        0.1075
     16 H          67.0513   96.5407    7.8043 H       1  UNL1        0.1189
     17 H          66.6391   97.0075    9.3492 H       1  UNL1        0.1189
     18 C          63.9371   91.6415   10.5462 C.3     1  UNL1        0.1879
     19 C          61.4163   88.0498    9.5487 C.3     1  UNL1        0.0900
     20 C          62.2566   89.2470    9.8812 C.1     1  UNL1       -0.0881
     21 C          63.0969   90.4442   10.2137 C.1     1  UNL1       -0.0655
     22 C          63.8250   90.7323   15.6609 C.3     1  UNL1        0.1593
     23 C          63.7128   89.2452   15.8223 C.ar    1  UNL1        0.0829
     24 C          63.1625   88.6681   17.0928 C.ar    1  UNL1        0.0281
     25 C          63.0503   87.1811   17.2542 C.ar    1  UNL1        0.0603
     26 CL         62.5000   86.6040   18.5247 Cl      1  UNL1       -0.0822
     27 C          63.4883   86.2710   16.1451 C.ar    1  UNL1        0.0282
     28 C          63.3760   84.7840   16.3065 C.ar    1  UNL1        0.0023
     29 C          63.8140   83.8741   15.1975 C.ar    1  UNL1        0.0001
     30 C          64.3643   84.4512   13.9270 C.ar    1  UNL1        0.0015
     31 C          64.4766   85.9382   13.7655 C.ar    1  UNL1        0.0191
     32 C          64.0385   86.8481   14.8746 C.ar    1  UNL1        0.0818
     33 N          64.1508   88.3352   14.7132 N.ar    1  UNL1       -0.2477
@<TRIPOS>BOND
     1    19    20    1
     2    20    21    3
     3    21    18    1
     4    18     1    1
     5     1     2   ar
     6     2     9    1
     7     9    10    1
     8    10    11    1
     9    11    12    1
    10    12    13    1
    11    13    14    1
    12    13    15    1
    13     2     3   ar
    14     3     4   ar
    15     4     5    2
    16     4     6   ar
    17     6    22    1
    18    22    23    1
    19    23    24   ar
    20    24    25   ar
    21    25    26    1
    22    25    27   ar
    23    27    28   ar
    24    28    29   ar
    25    29    30   ar
    26    30    31   ar
    27    31    32   ar
    28    32    33   ar
    29     6     7   ar
    30     7     8    2
    31     7     1   ar
    32    15     9    1
    33    33    23   ar
    34    32    27   ar
    35    14    16    1
    36    14    17    1
@<TRIPOS>MOLECULE
*****
 33 36 0 0 0
SMALL
GASTEIGER

@<TRIPOS>ATOM
      1 N          64.8020   91.4169   12.4658 N.ar    1  UNL1       -0.2570
      2 C          65.4178   90.9715   13.7590 C.ar    1  UNL1        0.1213
      3 C          64.9330   89.7198   14.4286 C.ar    1  UNL1        0.0935
      4 C          63.8326   88.9135   13.8049 C.ar    1  UNL1        0.2674
      5 O          63.3479   87.6618   14.4744 O.2     1  UNL1       -0.2667
      6 N          63.2169   89.3590   12.5116 N.ar    1  UNL1       -0.2428
      7 C          63.7016   90.6106   11.8421 C.ar    1  UNL1        0.3357
      8 O          63.0859   91.0561   10.5489 O.2     1  UNL1       -0.2461
      9 N          66.5182   91.7777   14.3826 N.pl3   1  UNL1       -0.2930
     10 C          66.2145   92.7087   15.5188 C.3     1  UNL1        0.0922
     11 C          67.3149   93.5150   16.1425 C.3     1  UNL1        0.0229
     12 C          68.7191   93.3902   15.6300 C.3     1  UNL1        0.0190
     13 C          69.0229   92.4592   14.4938 C.3     1  UNL1        0.0709
     14 N          70.4271   92.3344   13.9813 N.3     1  UNL1       -0.3208
     15 C          67.9224   91.6529   13.8701 C.3     1  UNL1        0.1075
     16 H          71.0402   92.9492   14.5165 H       1  UNL1        0.1189
     17 H          70.4545   92.6000   12.9968 H       1  UNL1        0.1189
     18 C          65.2868   92.6686   11.7962 C.3     1  UNL1        0.1879
     19 C          68.7674   92.4942    8.9493 C.3     1  UNL1        0.0900
     20 C          67.6072   92.5523    9.8983 C.1     1  UNL1       -0.0881
     21 C          66.4470   92.6104   10.8472 C.1     1  UNL1       -0.0655
     22 C          62.1164   88.5527   11.8879 C.3     1  UNL1        0.1593
     23 C          62.3979   87.1729   11.3712 C.ar    1  UNL1        0.0829
     24 C          62.4334   86.9183    9.8934 C.ar    1  UNL1        0.0281
     25 C          62.7149   85.5386    9.3766 C.ar    1  UNL1        0.0603
     26 CL         62.7503   85.2840    7.8988 Cl      1  UNL1       -0.0822
     27 C          62.9609   84.4134   10.3376 C.ar    1  UNL1        0.0282
     28 C          63.2423   83.0337    9.8208 C.ar    1  UNL1        0.0023
     29 C          63.4883   81.9086   10.7818 C.ar    1  UNL1        0.0001
     30 C          63.4529   82.1632   12.2596 C.ar    1  UNL1        0.0015
     31 C          63.1714   83.5429   12.7764 C.ar    1  UNL1        0.0191
     32 C          62.9254   84.6680   11.8154 C.ar    1  UNL1        0.0818
     33 N          62.6439   86.0478   12.3322 N.ar    1  UNL1       -0.2477
@<TRIPOS>BOND
     1    19    20    1
     2    20    21    3
     3    21    18    1
     4    18     1    1
     5     1     2   ar
     6     2     9    1
     7     9    10    1
     8    10    11    1
     9    11    12    1
    10    12    13    1
    11    13    14    1
    12    13    15    1
    13     2     3   ar
    14     3     4   ar
    15     4     5    2
    16     4     6   ar
    17     6    22    1
    18    22    23    1
    19    23    24   ar
    20    24    25   ar
    21    25    26    1
    22    25    27   ar
    23    27    28   ar
    24    28    29   ar
    25    29    30   ar
    26    30    31   ar
    27    31    32   ar
    28    32    33   ar
    29     6     7   ar
    30     7     8    2
    31     7     1   ar
    32    15     9    1
    33    33    23   ar
    34    32    27   ar
    35    14    16    1
    36    14    17    1
@<TRIPOS>MOLECULE
*****
 33 36 0 0 0
SMALL
GASTEIGER

@<TRIPOS>ATOM
      1 N          64.6380   91.6620   11.9098 N.ar    1  UNL1       -0.2570
      2 C          64.8487   91.3638   13.3647 C.ar    1  UNL1        0.1213
      3 C          63.7779   90.6659   14.1500 C.ar    1  UNL1        0.0935
      4 C          62.4966   90.2663   13.4804 C.ar    1  UNL1        0.2674
      5 O          61.4259   89.5685   14.2656 O.2     1  UNL1       -0.2667
      6 N          62.2859   90.5645   12.0254 N.ar    1  UNL1       -0.2428
      7 C          63.3566   91.2624   11.2402 C.ar    1  UNL1        0.3357
      8 O          63.1459   91.5606    9.7854 O.2     1  UNL1       -0.2461
      9 N          66.1300   91.7634   14.0343 N.pl3   1  UNL1       -0.2930
     10 C          66.1073   92.3141   15.4293 C.3     1  UNL1        0.0922
     11 C          67.3886   92.7137   16.0989 C.3     1  UNL1        0.0229
     12 C          68.6928   92.5626   15.3735 C.3     1  UNL1        0.0190
     13 C          68.7156   92.0119   13.9784 C.3     1  UNL1        0.0709
     14 N          70.0198   91.8608   13.2530 N.3     1  UNL1       -0.3208
     15 C          67.4343   91.6122   13.3088 C.3     1  UNL1        0.1075
     16 H          70.7813   92.1783   13.8528 H       1  UNL1        0.1189
     17 H          70.0018   92.4212   12.4010 H       1  UNL1        0.1189
     18 C          65.7087   92.3598   11.1246 C.3     1  UNL1        0.1879
     19 C          65.8259   96.8560   10.9821 C.3     1  UNL1        0.0900
     20 C          65.7868   95.3573   11.0296 C.1     1  UNL1       -0.0881
     21 C          65.7477   93.8585   11.0771 C.1     1  UNL1       -0.0655
     22 C          61.0045   90.1649   11.3558 C.3     1  UNL1        0.1593
     23 C          61.0020   89.0627   10.3384 C.ar    1  UNL1        0.0829
     24 C          59.9456   89.0269    9.2741 C.ar    1  UNL1        0.0281
     25 C          59.9431   87.9247    8.2566 C.ar    1  UNL1        0.0603
     26 CL         58.8867   87.8890    7.1923 Cl      1  UNL1       -0.0822
     27 C          60.9969   86.8583    8.3035 C.ar    1  UNL1        0.0282
     28 C          60.9944   85.7561    7.2861 C.ar    1  UNL1        0.0023
     29 C          62.0482   84.6897    7.3331 C.ar    1  UNL1        0.0001
     30 C          63.1045   84.7255    8.3974 C.ar    1  UNL1        0.0015
     31 C          63.1071   85.8276    9.4148 C.ar    1  UNL1        0.0191
     32 C          62.0533   86.8940    9.3679 C.ar    1  UNL1        0.0818
     33 N          62.0558   87.9963   10.3853 N.ar    1  UNL1       -0.2477
@<TRIPOS>BOND
     1    19    20    1
     2    20    21    3
     3    21    18    1
     4    18     1    1
     5     1     2   ar
     6     2     9    1
     7     9    10    1
     8    10    11    1
     9    11    12    1
    10    12    13    1
    11    13    14    1
    12    13    15    1
    13     2     3   ar
    14     3     4   ar
    15     4     5    2
    16     4     6   ar
    17     6    22    1
    18    22    23    1
    19    23    24   ar
    20    24    25   ar
    21    25    26    1
    22    25    27   ar
    23    27    28   ar
    24    28    29   ar
    25    29    30   ar
    26    30    31   ar
    27    31    32   ar
    28    32    33   ar
    29     6     7   ar
    30     7     8    2
    31     7     1   ar
    32    15     9    1
    33    33    23   ar
    34    32    27   ar
    35    14    16    1
    36    14    17    1
@<TRIPOS>MOLECULE
*****
 33 36 0 0 0
SMALL
GASTEIGER

@<TRIPOS>ATOM
      1 N          63.3690   86.3072   12.9126 N.ar    1  UNL1       -0.2570
      2 C          62.7733   85.4428   11.8412 C.ar    1  UNL1        0.1213
      3 C          62.0529   86.0708   10.6850 C.ar    1  UNL1        0.0935
      4 C          61.9282   87.5632   10.6003 C.ar    1  UNL1        0.2674
      5 O          61.2079   88.1912    9.4442 O.2     1  UNL1       -0.2667
      6 N          62.5239   88.4277   11.6718 N.ar    1  UNL1       -0.2428
      7 C          63.2443   87.7996   12.8279 C.ar    1  UNL1        0.3357
      8 O          63.8399   88.6641   13.8993 O.2     1  UNL1       -0.2461
      9 N          62.8980   83.9504   11.9259 N.pl3   1  UNL1       -0.2930
     10 C          63.4632   83.1783   10.7709 C.3     1  UNL1        0.0922
     11 C          63.5879   81.6859   10.8556 C.3     1  UNL1        0.0229
     12 C          63.1473   80.9656   12.0954 C.3     1  UNL1        0.0190
     13 C          62.5821   81.7378   13.2505 C.3     1  UNL1        0.0709
     14 N          62.1415   81.0175   14.4903 N.3     1  UNL1       -0.3208
     15 C          62.4574   83.2302   13.1658 C.3     1  UNL1        0.1075
     16 H          62.2970   80.0161   14.3751 H       1  UNL1        0.1189
     17 H          61.1492   81.1914   14.6500 H       1  UNL1        0.1189
     18 C          64.0893   85.6792   14.0688 C.3     1  UNL1        0.1879
     19 C          62.7629   86.5398   18.2818 C.3     1  UNL1        0.0900
     20 C          63.2050   86.2529   16.8775 C.1     1  UNL1       -0.0881
     21 C          63.6472   85.9661   15.4731 C.1     1  UNL1       -0.0655
     22 C          62.3993   89.9201   11.5871 C.3     1  UNL1        0.1593
     23 C          63.5380   90.7938   12.0229 C.ar    1  UNL1        0.0829
     24 C          64.3145   91.5767   11.0060 C.ar    1  UNL1        0.0281
     25 C          65.4532   92.4504   11.4418 C.ar    1  UNL1        0.0603
     26 CL         66.2296   93.2333   10.4249 Cl      1  UNL1       -0.0822
     27 C          65.8155   92.5411   12.8946 C.ar    1  UNL1        0.0282
     28 C          66.9543   93.4148   13.3304 C.ar    1  UNL1        0.0023
     29 C          67.3166   93.5055   14.7832 C.ar    1  UNL1        0.0001
     30 C          66.5401   92.7225   15.8001 C.ar    1  UNL1        0.0015
     31 C          65.4014   91.8489   15.3643 C.ar    1  UNL1        0.0191
     32 C          65.0391   91.7582   13.9115 C.ar    1  UNL1        0.0818
     33 N          63.9003   90.8845   13.4757 N.ar    1  UNL1       -0.2477
@<TRIPOS>BOND
     1    19    20    1
     2    20    21    3
     3    21    18    1
     4    18     1    1
     5     1     2   ar
     6     2     9    1
     7     9    10    1
     8    10    11    1
     9    11    12    1
    10    12    13    1
    11    13    14    1
    12    13    15    1
    13     2     3   ar
    14     3     4   ar
    15     4     5    2
    16     4     6   ar
    17     6    22    1
    18    22    23    1
    19    23    24   ar
    20    24    25   ar
    21    25    26    1
    22    25    27   ar
    23    27    28   ar
    24    28    29   ar
    25    29    30   ar
    26    30    31   ar
    27    31    32   ar
    28    32    33   ar
    29     6     7   ar
    30     7     8    2
    31     7     1   ar
    32    15     9    1
    33    33    23   ar
    34    32    27   ar
    35    14    16    1
    36    14    17    1
@<TRIPOS>MOLECULE
*****
 33 36 0 0 0
SMALL
GASTEIGER

@<TRIPOS>ATOM
      1 N          61.9392   86.5578   11.2118 N.ar    1  UNL1       -0.2570
      2 C          62.8250   85.8317   12.1803 C.ar    1  UNL1        0.1213
      3 C          63.6594   86.6048   13.1583 C.ar    1  UNL1        0.0935
      4 C          63.6079   88.1039   13.1676 C.ar    1  UNL1        0.2674
      5 O          64.4422   88.8769   14.1455 O.2     1  UNL1       -0.2667
      6 N          62.7220   88.8299   12.1990 N.ar    1  UNL1       -0.2428
      7 C          61.8877   88.0569   11.2211 C.ar    1  UNL1        0.3357
      8 O          61.0019   88.7829   10.2525 O.2     1  UNL1       -0.2461
      9 N          62.8766   84.3327   12.1710 N.pl3   1  UNL1       -0.2930
     10 C          63.4454   83.6091   10.9866 C.3     1  UNL1        0.0922
     11 C          63.4970   82.1100   10.9773 C.3     1  UNL1        0.0229
     12 C          62.9796   81.3345   12.1523 C.3     1  UNL1        0.0190
     13 C          62.4107   82.0580   13.3368 C.3     1  UNL1        0.0709
     14 N          61.8934   81.2825   14.5119 N.3     1  UNL1       -0.3208
     15 C          62.3592   83.5571   13.3462 C.3     1  UNL1        0.1075
     16 H          62.0057   80.2840   14.3364 H       1  UNL1        0.1189
     17 H          60.9053   81.4942   14.6506 H       1  UNL1        0.1189
     18 C          61.1049   85.7847   10.2339 C.3     1  UNL1        0.1879
     19 C          62.7545   84.7799    6.1695 C.3     1  UNL1        0.0900
     20 C          62.2047   85.1149    7.5243 C.1     1  UNL1       -0.0881
     21 C          61.6548   85.4498    8.8791 C.1     1  UNL1       -0.0655
     22 C          62.6705   90.3290   12.2083 C.3     1  UNL1        0.1593
     23 C          63.8857   91.1188   12.5951 C.ar    1  UNL1        0.0829
     24 C          64.7302   91.7627   11.5357 C.ar    1  UNL1        0.0281
     25 C          65.9453   92.5524   11.9225 C.ar    1  UNL1        0.0603
     26 CL         66.7898   93.1963   10.8631 Cl      1  UNL1       -0.0822
     27 C          66.3160   92.6984   13.3687 C.ar    1  UNL1        0.0282
     28 C          67.5312   93.4882   13.7554 C.ar    1  UNL1        0.0023
     29 C          67.9018   93.6342   15.2015 C.ar    1  UNL1        0.0001
     30 C          67.0573   92.9903   16.2609 C.ar    1  UNL1        0.0015
     31 C          65.8421   92.2006   15.8741 C.ar    1  UNL1        0.0191
     32 C          65.4715   92.0546   14.4280 C.ar    1  UNL1        0.0818
     33 N          64.2563   91.2648   14.0412 N.ar    1  UNL1       -0.2477
@<TRIPOS>BOND
     1    19    20    1
     2    20    21    3
     3    21    18    1
     4    18     1    1
     5     1     2   ar
     6     2     9    1
     7     9    10    1
     8    10    11    1
     9    11    12    1
    10    12    13    1
    11    13    14    1
    12    13    15    1
    13     2     3   ar
    14     3     4   ar
    15     4     5    2
    16     4     6   ar
    17     6    22    1
    18    22    23    1
    19    23    24   ar
    20    24    25   ar
    21    25    26    1
    22    25    27   ar
    23    27    28   ar
    24    28    29   ar
    25    29    30   ar
    26    30    31   ar
    27    31    32   ar
    28    32    33   ar
    29     6     7   ar
    30     7     8    2
    31     7     1   ar
    32    15     9    1
    33    33    23   ar
    34    32    27   ar
    35    14    16    1
    36    14    17    1
@<TRIPOS>MOLECULE
*****
 33 36 0 0 0
SMALL
GASTEIGER

@<TRIPOS>ATOM
      1 N          62.6733   86.3692   11.4165 N.ar    1  UNL1       -0.2570
      2 C          63.2104   85.5675   12.5649 C.ar    1  UNL1        0.1213
      3 C          63.7894   86.2644   13.7604 C.ar    1  UNL1        0.0935
      4 C          63.8312   87.7631   13.8075 C.ar    1  UNL1        0.2674
      5 O          64.4101   88.4600   15.0029 O.2     1  UNL1       -0.2667
      6 N          63.2941   88.5648   12.6590 N.ar    1  UNL1       -0.2428
      7 C          62.7152   87.8679   11.4636 C.ar    1  UNL1        0.3357
      8 O          62.1781   88.6696   10.3153 O.2     1  UNL1       -0.2461
      9 N          63.1686   84.0688   12.5178 N.pl3   1  UNL1       -0.2930
     10 C          63.9749   83.3278   11.4928 C.3     1  UNL1        0.0922
     11 C          63.9331   81.8291   11.4457 C.3     1  UNL1        0.0229
     12 C          63.0849   81.0714   12.4236 C.3     1  UNL1        0.0190
     13 C          62.2784   81.8124   13.4487 C.3     1  UNL1        0.0709
     14 N          61.4302   81.0547   14.4266 N.3     1  UNL1       -0.3208
     15 C          62.3203   83.3111   13.4958 C.3     1  UNL1        0.1075
     16 H          61.5209   80.0540   14.2514 H       1  UNL1        0.1189
     17 H          60.4548   81.3320   14.3169 H       1  UNL1        0.1189
     18 C          62.0944   85.6723   10.2211 C.3     1  UNL1        0.1879
     19 C          58.9787   87.7282    7.7081 C.3     1  UNL1        0.0900
     20 C          60.0173   87.0429    8.5458 C.1     1  UNL1       -0.0881
     21 C          61.0559   86.3576    9.3834 C.1     1  UNL1       -0.0655
     22 C          63.3360   90.0635   12.7061 C.3     1  UNL1        0.1593
     23 C          64.3224   90.7586   13.5972 C.ar    1  UNL1        0.0829
     24 C          63.9014   91.2311   14.9572 C.ar    1  UNL1        0.0281
     25 C          64.8877   91.9262   15.8482 C.ar    1  UNL1        0.0603
     26 CL         64.4668   92.3986   17.2082 Cl      1  UNL1       -0.0822
     27 C          66.2951   92.1488   15.3793 C.ar    1  UNL1        0.0282
     28 C          67.2814   92.8439   16.2703 C.ar    1  UNL1        0.0023
     29 C          68.6887   93.0665   15.8013 C.ar    1  UNL1        0.0001
     30 C          69.1096   92.5941   14.4413 C.ar    1  UNL1        0.0015
     31 C          68.1233   91.8990   13.5503 C.ar    1  UNL1        0.0191
     32 C          66.7160   91.6764   14.0193 C.ar    1  UNL1        0.0818
     33 N          65.7296   90.9812   13.1282 N.ar    1  UNL1       -0.2477
@<TRIPOS>BOND
     1    19    20    1
     2    20    21    3
     3    21    18    1
     4    18     1    1
     5     1     2   ar
     6     2     9    1
     7     9    10    1
     8    10    11    1
     9    11    12    1
    10    12    13    1
    11    13    14    1
    12    13    15    1
    13     2     3   ar
    14     3     4   ar
    15     4     5    2
    16     4     6   ar
    17     6    22    1
    18    22    23    1
    19    23    24   ar
    20    24    25   ar
    21    25    26    1
    22    25    27   ar
    23    27    28   ar
    24    28    29   ar
    25    29    30   ar
    26    30    31   ar
    27    31    32   ar
    28    32    33   ar
    29     6     7   ar
    30     7     8    2
    31     7     1   ar
    32    15     9    1
    33    33    23   ar
    34    32    27   ar
    35    14    16    1
    36    14    17    1
@<TRIPOS>MOLECULE
*****
 33 36 0 0 0
SMALL
GASTEIGER

@<TRIPOS>ATOM
      1 N          63.7642   90.1787   12.5522 N.ar    1  UNL1       -0.2570
      2 C          64.4641   89.7691   13.8140 C.ar    1  UNL1        0.1213
      3 C          64.4254   88.3382   14.2626 C.ar    1  UNL1        0.0935
      4 C          63.6868   87.3170   13.4493 C.ar    1  UNL1        0.2674
      5 O          63.6480   85.8862   13.8978 O.2     1  UNL1       -0.2667
      6 N          62.9868   87.7267   12.1873 N.ar    1  UNL1       -0.2428
      7 C          63.0256   89.1575   11.7388 C.ar    1  UNL1        0.3357
      8 O          62.3257   89.5671   10.4770 O.2     1  UNL1       -0.2461
      9 N          65.2028   90.7903   14.6274 N.pl3   1  UNL1       -0.2930
     10 C          66.6359   91.1041   14.3151 C.3     1  UNL1        0.0922
     11 C          67.3746   92.1253   15.1284 C.3     1  UNL1        0.0229
     12 C          66.6801   92.8327   16.2541 C.3     1  UNL1        0.0190
     13 C          65.2468   92.5190   16.5664 C.3     1  UNL1        0.0709
     14 N          64.5523   93.2265   17.6921 N.3     1  UNL1       -0.3208
     15 C          64.5082   91.4978   15.7531 C.3     1  UNL1        0.1075
     16 H          65.1988   93.8809   18.1327 H       1  UNL1        0.1189
     17 H          64.2383   92.5429   18.3810 H       1  UNL1        0.1189
     18 C          63.8030   91.6095   12.1037 C.3     1  UNL1        0.1879
     19 C          67.3248   93.1369    9.7555 C.3     1  UNL1        0.0900
     20 C          66.1509   92.6278   10.5382 C.1     1  UNL1       -0.0881
     21 C          64.9769   92.1187   11.3210 C.1     1  UNL1       -0.0655
     22 C          62.2482   86.7055   11.3740 C.3     1  UNL1        0.1593
     23 C          62.5204   85.2445   11.5780 C.ar    1  UNL1        0.0829
     24 C          63.3673   84.4947   10.5927 C.ar    1  UNL1        0.0281
     25 C          63.6395   83.0338   10.7966 C.ar    1  UNL1        0.0603
     26 CL         64.4864   82.2841    9.8114 Cl      1  UNL1       -0.0822
     27 C          63.0649   82.3226   11.9858 C.ar    1  UNL1        0.0282
     28 C          63.3371   80.8617   12.1897 C.ar    1  UNL1        0.0023
     29 C          62.7625   80.1506   13.3788 C.ar    1  UNL1        0.0001
     30 C          61.9157   80.9004   14.3641 C.ar    1  UNL1        0.0015
     31 C          61.6435   82.3613   14.1602 C.ar    1  UNL1        0.0191
     32 C          62.2181   83.0724   12.9710 C.ar    1  UNL1        0.0818
     33 N          61.9458   84.5334   12.7671 N.ar    1  UNL1       -0.2477
@<TRIPOS>BOND
     1    19    20    1
     2    20    21    3
     3    21    18    1
     4    18     1    1
     5     1     2   ar
     6     2     9    1
     7     9    10    1
     8    10    11    1
     9    11    12    1
    10    12    13    1
    11    13    14    1
    12    13    15    1
    13     2     3   ar
    14     3     4   ar
    15     4     5    2
    16     4     6   ar
    17     6    22    1
    18    22    23    1
    19    23    24   ar
    20    24    25   ar
    21    25    26    1
    22    25    27   ar
    23    27    28   ar
    24    28    29   ar
    25    29    30   ar
    26    30    31   ar
    27    31    32   ar
    28    32    33   ar
    29     6     7   ar
    30     7     8    2
    31     7     1   ar
    32    15     9    1
    33    33    23   ar
    34    32    27   ar
    35    14    16    1
    36    14    17    1
@<TRIPOS>MOLECULE
*****
 33 36 0 0 0
SMALL
GASTEIGER

@<TRIPOS>ATOM
      1 N          65.1077   92.0121   12.4734 N.ar    1  UNL1       -0.2570
      2 C          65.8009   91.4837   13.6941 C.ar    1  UNL1        0.1213
      3 C          65.1390   90.4344   14.5374 C.ar    1  UNL1        0.0935
      4 C          63.7839   89.9136   14.1597 C.ar    1  UNL1        0.2674
      5 O          63.1220   88.8643   15.0029 O.2     1  UNL1       -0.2667
      6 N          63.0908   90.4421   12.9389 N.ar    1  UNL1       -0.2428
      7 C          63.7527   91.4913   12.0958 C.ar    1  UNL1        0.3357
      8 O          63.0596   92.0197   10.8750 O.2     1  UNL1       -0.2461
      9 N          67.1559   92.0045   14.0718 N.pl3   1  UNL1       -0.2930
     10 C          68.3816   91.4661   13.3952 C.3     1  UNL1        0.0922
     11 C          69.7367   91.9869   13.7728 C.3     1  UNL1        0.0229
     12 C          69.8660   93.0461   14.8270 C.3     1  UNL1        0.0190
     13 C          68.6403   93.5845   15.5036 C.3     1  UNL1        0.0709
     14 N          68.7697   94.6437   16.5578 N.3     1  UNL1       -0.3208
     15 C          67.2853   93.0637   15.1260 C.3     1  UNL1        0.1075
     16 H          69.7542   94.8773   16.6861 H       1  UNL1        0.1189
     17 H          68.3851   94.2974   17.4367 H       1  UNL1        0.1189
     18 C          65.7697   93.0613   11.6303 C.3     1  UNL1        0.1879
     19 C          68.9123   91.8858    8.6316 C.3     1  UNL1        0.0900
     20 C          67.8648   92.2777    9.6312 C.1     1  UNL1       -0.0881
     21 C          66.8172   92.6695   10.6307 C.1     1  UNL1       -0.0655
     22 C          61.7357   89.9212   12.5613 C.3     1  UNL1        0.1593
     23 C          61.6093   88.8333   11.5363 C.ar    1  UNL1        0.0829
     24 C          62.3904   87.5622   11.6915 C.ar    1  UNL1        0.0281
     25 C          62.2640   86.4744   10.6666 C.ar    1  UNL1        0.0603
     26 CL         63.0451   85.2033   10.8217 Cl      1  UNL1       -0.0822
     27 C          61.3564   86.6576    9.4864 C.ar    1  UNL1        0.0282
     28 C          61.2300   85.5697    8.4614 C.ar    1  UNL1        0.0023
     29 C          60.3224   85.7530    7.2813 C.ar    1  UNL1        0.0001
     30 C          59.5413   87.0241    7.1261 C.ar    1  UNL1        0.0015
     31 C          59.6677   88.1120    8.1511 C.ar    1  UNL1        0.0191
     32 C          60.5753   87.9287    9.3312 C.ar    1  UNL1        0.0818
     33 N          60.7017   89.0166   10.3562 N.ar    1  UNL1       -0.2477
@<TRIPOS>BOND
     1    19    20    1
     2    20    21    3
     3    21    18    1
     4    18     1    1
     5     1     2   ar
     6     2     9    1
     7     9    10    1
     8    10    11    1
     9    11    12    1
    10    12    13    1
    11    13    14    1
    12    13    15    1
    13     2     3   ar
    14     3     4   ar
    15     4     5    2
    16     4     6   ar
    17     6    22    1
    18    22    23    1
    19    23    24   ar
    20    24    25   ar
    21    25    26    1
    22    25    27   ar
    23    27    28   ar
    24    28    29   ar
    25    29    30   ar
    26    30    31   ar
    27    31    32   ar
    28    32    33   ar
    29     6     7   ar
    30     7     8    2
    31     7     1   ar
    32    15     9    1
    33    33    23   ar
    34    32    27   ar
    35    14    16    1
    36    14    17    1
