@<TRIPOS>MOLECULE
*****
 43 48 0 0 0
SMALL
GASTEIGER

@<TRIPOS>ATOM
      1 N          60.2829   88.8775   10.3339 N.am    1  UNL1       -0.2222
      2 C          59.9337   89.9646    9.3610 C.2     1  UNL1        0.3219
      3 O          59.3902   91.3185    9.7095 O.2     1  UNL1       -0.2512
      4 N          60.2233   89.4599    7.9784 N.am    1  UNL1       -0.1907
      5 C          60.7516   88.0611    8.0968 C.2     1  UNL1        0.2529
      6 O          61.1697   87.1772    6.9592 O.2     1  UNL1       -0.2724
      7 C          60.7884   87.7011    9.5525 C.3     1  UNL1        0.1391
      8 C          60.7683   87.4846   11.0367 C.3     1  UNL1        0.0449
      9 C          61.2296   86.1777   11.6103 C.3     1  UNL1        0.0746
     10 N          61.7111   85.0872   10.6998 N.3     1  UNL1       -0.2676
     11 C          61.7313   85.3037    9.2157 C.3     1  UNL1        0.0746
     12 C          61.2700   86.6106    8.6421 C.3     1  UNL1        0.0449
     13 C          61.1879   89.4529   14.1548 C.ar    1  UNL1        0.2293
     14 C          61.3208   89.3769   12.6627 C.ar    1  UNL1        0.0924
     15 C          60.1500   88.9536   11.8260 C.ar    1  UNL1        0.1453
     16 N          58.8462   88.6064   12.4815 N.ar    1  UNL1       -0.2084
     17 C          58.7133   88.6824   13.9736 C.ar    1  UNL1        0.2027
     18 N          59.8841   89.1057   14.8103 N.ar    1  UNL1       -0.1892
     19 C          63.5908   90.4241   14.3346 C.3     1  UNL1        0.2542
     20 O          62.3587   89.8762   14.9915 O.3     1  UNL1       -0.4560
     21 C          60.0204   90.2206    6.7017 C.ar    1  UNL1        0.0622
     22 C          58.6359   90.5994    6.2663 C.ar    1  UNL1        0.0154
     23 C          58.4329   91.3601    4.9896 C.ar    1  UNL1        0.0013
     24 C          59.6145   91.7420    4.1481 C.ar    1  UNL1        0.0001
     25 C          60.9991   91.3633    4.5835 C.ar    1  UNL1        0.0013
     26 C          61.2020   90.6026    5.8603 C.ar    1  UNL1        0.0154
     27 C          59.4115   92.5028    2.8714 C.ar    1  UNL1        0.0000
     28 C          58.4010   92.0296    1.8689 C.ar    1  UNL1        0.0000
     29 C          58.1980   92.7903    0.5922 C.ar    1  UNL1        0.0011
     30 C          59.0057   94.0242    0.3179 C.ar    1  UNL1        0.0140
     31 C          60.0162   94.4974    1.3203 C.ar    1  UNL1        0.0011
     32 C          60.2192   93.7367    2.5970 C.ar    1  UNL1        0.0000
     33 C          58.8027   94.7849   -0.9589 C.2     1  UNL1        0.0729
     34 O          57.5046   95.4927   -1.2120 O.co2   1  UNL1       -0.5446
     35 O          59.8979   94.8379   -1.9825 O.co2   1  UNL1       -0.5446
     36 C          62.1725   83.7803   11.2736 C.3     1  UNL1        0.1183
     37 C          62.8717   83.7487   12.6002 C.ar    1  UNL1        0.0712
     38 N          63.7229   84.9076   13.0272 N.ar    1  UNL1       -0.2471
     39 C          64.4222   84.8759   14.3539 C.ar    1  UNL1        0.0985
     40 C          64.2701   83.6854   15.2536 C.ar    1  UNL1        0.0203
     41 C          63.4188   82.5265   14.8267 C.ar    1  UNL1       -0.0015
     42 C          62.7196   82.5581   13.5000 C.ar    1  UNL1       -0.0069
     43 C          61.8683   81.3992   13.0730 C.3     1  UNL1        0.0323
@<TRIPOS>UNITY_ATOM_ATTR
34 1
charge -1
@<TRIPOS>BOND
     1    19    20    1
     2    20    13    1
     3    13    14   ar
     4    14    15   ar
     5    15     1    1
     6     1     2   am
     7     2     3    2
     8     2     4   am
     9     4    21    1
    10    21    22   ar
    11    22    23   ar
    12    23    24   ar
    13    24    27    1
    14    27    28   ar
    15    28    29   ar
    16    29    30   ar
    17    30    33    1
    18    33    34   ar
    19    33    35   ar
    20    30    31   ar
    21    31    32   ar
    22    24    25   ar
    23    25    26   ar
    24     4     5   am
    25     5     6    2
    26     5     7    1
    27     7     8    1
    28     8     9    1
    29     9    10    1
    30    10    36    1
    31    36    37    1
    32    37    38   ar
    33    38    39   ar
    34    39    40   ar
    35    40    41   ar
    36    41    42   ar
    37    42    43    1
    38    10    11    1
    39    11    12    1
    40    15    16   ar
    41    16    17   ar
    42    17    18   ar
    43    18    13   ar
    44     7     1    1
    45    42    37   ar
    46    26    21   ar
    47    12     7    1
    48    32    27   ar
@<TRIPOS>MOLECULE
*****
 43 48 0 0 0
SMALL
GASTEIGER

@<TRIPOS>ATOM
      1 N          60.1475   88.8998   10.0640 N.am    1  UNL1       -0.2222
      2 C          59.8059   89.9963    9.0991 C.2     1  UNL1        0.3219
      3 O          59.2028   91.3240    9.4506 O.2     1  UNL1       -0.2512
      4 N          60.1733   89.5320    7.7208 N.am    1  UNL1       -0.1907
      5 C          60.7420   88.1486    7.8340 C.2     1  UNL1        0.2529
      6 O          61.2393   87.3042    6.6984 O.2     1  UNL1       -0.2724
      7 C          60.7260   87.7578    9.2822 C.3     1  UNL1        0.1391
      8 C          60.6471   87.5081   10.7591 C.3     1  UNL1        0.0449
      9 C          61.1256   86.2043   11.3258 C.3     1  UNL1        0.0746
     10 N          61.6831   85.1504   10.4157 N.3     1  UNL1       -0.2676
     11 C          61.7620   85.4002    8.9387 C.3     1  UNL1        0.0746
     12 C          61.2835   86.7039    8.3720 C.3     1  UNL1        0.0449
     13 C          58.4250   88.5738   13.6244 C.ar    1  UNL1        0.2293
     14 C          58.6265   88.5351   12.1385 C.ar    1  UNL1        0.0924
     15 C          59.9459   88.9385   11.5499 C.ar    1  UNL1        0.1453
     16 N          61.0638   89.3805   12.4472 N.ar    1  UNL1       -0.2084
     17 C          60.8623   89.4192   13.9330 C.ar    1  UNL1        0.2027
     18 N          59.5428   89.0158   14.5217 N.ar    1  UNL1       -0.1892
     19 C          55.9761   87.7638   13.3138 C.3     1  UNL1        0.2542
     20 O          57.1056   88.1705   14.2131 O.3     1  UNL1       -0.4560
     21 C          60.0022   90.3138    6.4523 C.ar    1  UNL1        0.0622
     22 C          58.6331   90.7429    6.0146 C.ar    1  UNL1        0.0154
     23 C          58.4620   91.5248    4.7460 C.ar    1  UNL1        0.0013
     24 C          59.6599   91.8776    3.9150 C.ar    1  UNL1        0.0001
     25 C          61.0290   91.4485    4.3526 C.ar    1  UNL1        0.0013
     26 C          61.2001   90.6666    5.6213 C.ar    1  UNL1        0.0154
     27 C          59.4887   92.6594    2.6464 C.ar    1  UNL1        0.0000
     28 C          60.1242   94.0110    2.5068 C.ar    1  UNL1        0.0000
     29 C          59.9530   94.7928    1.2382 C.ar    1  UNL1        0.0011
     30 C          59.1463   94.2230    0.1092 C.ar    1  UNL1        0.0140
     31 C          58.5108   92.8715    0.2487 C.ar    1  UNL1        0.0011
     32 C          58.6820   92.0897    1.5173 C.ar    1  UNL1        0.0000
     33 C          58.9752   95.0049   -1.1595 C.2     1  UNL1        0.0729
     34 O          60.1199   95.1362   -2.1199 O.co2   1  UNL1       -0.5446
     35 O          57.6592   95.6556   -1.4677 O.co2   1  UNL1       -0.5446
     36 C          62.1616   83.8466   10.9825 C.3     1  UNL1        0.1183
     37 C          62.8593   83.8169   12.3100 C.ar    1  UNL1        0.0712
     38 N          63.4587   85.0725   12.8705 N.ar    1  UNL1       -0.2471
     39 C          64.1564   85.0428   14.1981 C.ar    1  UNL1        0.0985
     40 C          64.2548   83.7575   14.9650 C.ar    1  UNL1        0.0203
     41 C          63.6554   82.5018   14.4045 C.ar    1  UNL1       -0.0015
     42 C          62.9577   82.5315   13.0770 C.ar    1  UNL1       -0.0069
     43 C          62.3584   81.2759   12.5164 C.3     1  UNL1        0.0323
@<TRIPOS>UNITY_ATOM_ATTR
34 1
charge -1
@<TRIPOS>BOND
     1    19    20    1
     2    20    13    1
     3    13    14   ar
     4    14    15   ar
     5    15     1    1
     6     1     2   am
     7     2     3    2
     8     2     4   am
     9     4    21    1
    10    21    22   ar
    11    22    23   ar
    12    23    24   ar
    13    24    27    1
    14    27    28   ar
    15    28    29   ar
    16    29    30   ar
    17    30    33    1
    18    33    34   ar
    19    33    35   ar
    20    30    31   ar
    21    31    32   ar
    22    24    25   ar
    23    25    26   ar
    24     4     5   am
    25     5     6    2
    26     5     7    1
    27     7     8    1
    28     8     9    1
    29     9    10    1
    30    10    36    1
    31    36    37    1
    32    37    38   ar
    33    38    39   ar
    34    39    40   ar
    35    40    41   ar
    36    41    42   ar
    37    42    43    1
    38    10    11    1
    39    11    12    1
    40    15    16   ar
    41    16    17   ar
    42    17    18   ar
    43    18    13   ar
    44     7     1    1
    45    42    37   ar
    46    26    21   ar
    47    12     7    1
    48    32    27   ar
