@<TRIPOS>MOLECULE
*****
 39 43 0 0 0
SMALL
GASTEIGER

@<TRIPOS>ATOM
      1 N          62.1302   87.0309   10.9887 N.am    1  UNL1       -0.2734
      2 C          63.0390   86.8856   12.1732 C.2     1  UNL1        0.2438
      3 O          63.5124   85.5256   12.5929 O.2     1  UNL1       -0.2731
      4 C          63.4743   88.1004   12.9380 C.3     1  UNL1        0.1488
      5 N          63.0009   89.4604   12.5182 N.am    1  UNL1       -0.2970
      6 C          62.0921   89.6057   11.3338 C.2     1  UNL1        0.2389
      7 O          61.6187   90.9657   10.9141 O.2     1  UNL1       -0.2734
      8 C          61.6568   88.3909   10.5689 C.3     1  UNL1        0.1314
      9 C          61.2214   87.1762    9.8042 C.3     1  UNL1        0.0445
     10 C          60.3127   87.3215    8.6197 C.3     1  UNL1        0.0745
     11 N          59.8393   88.6816    8.2000 N.3     1  UNL1       -0.2688
     12 C          60.2746   89.8963    8.9648 C.3     1  UNL1        0.0745
     13 C          61.1833   89.7510   10.1492 C.3     1  UNL1        0.0445
     14 H          63.2866   90.2577   13.0202 H       1  UNL1        0.1499
     15 C          61.6949   85.8162   10.2239 C.3     1  UNL1        0.0938
     16 C          62.7202   84.9010    9.6229 C.3     1  UNL1        0.0215
     17 C          62.4535   84.7961    7.0406 C.3     1  UNL1        0.0001
     18 C          63.2569   85.1752    8.2493 C.3     1  UNL1        0.0018
     19 C          64.3831   87.9551   14.1225 C.3     1  UNL1        0.0290
     20 C          63.8340   87.4813   15.4355 C.3     1  UNL1        0.0021
     21 C          63.8113   86.0157   15.7540 C.3     1  UNL1        0.0001
     22 C          63.2621   85.5419   17.0669 C.3     1  UNL1        0.0000
     23 C          62.7356   86.5338   18.0615 C.3     1  UNL1        0.0000
     24 C          62.7583   87.9994   17.7430 C.3     1  UNL1        0.0000
     25 C          63.3075   88.4732   16.4299 C.3     1  UNL1        0.0001
     26 C          58.9304   88.8268    7.0155 C.3     1  UNL1        0.0992
     27 C          59.1023   89.9832    6.0757 C.ar    1  UNL1       -0.0059
     28 C          57.9074   90.7759    5.6355 C.ar    1  UNL1        0.0002
     29 C          58.0793   91.9324    4.6957 C.ar    1  UNL1        0.0372
     30 C          59.4460   92.2960    4.1961 C.ar    1  UNL1        0.1453
     31 C          60.6410   91.5032    4.6362 C.ar    1  UNL1        0.0372
     32 C          60.4691   90.3469    5.5760 C.ar    1  UNL1        0.0002
     33 O          59.6179   93.4523    3.2563 O.3     1  UNL1       -0.4535
     34 C          60.2156   93.2326    1.8982 C.ar    1  UNL1        0.1453
     35 C          59.3349   92.8612    0.7422 C.ar    1  UNL1        0.0375
     36 C          59.9326   92.6415   -0.6159 C.ar    1  UNL1        0.0031
     37 C          61.4111   92.7932   -0.8180 C.ar    1  UNL1        0.0002
     38 C          62.2920   93.1647    0.3379 C.ar    1  UNL1        0.0031
     39 C          61.6942   93.3844    1.6960 C.ar    1  UNL1        0.0375
@<TRIPOS>BOND
     1    17    18    1
     2    18    16    1
     3    16    15    1
     4    15     1    1
     5     1     2   am
     6     2     3    2
     7     2     4    1
     8     4    19    1
     9    19    20    1
    10    20    21    1
    11    21    22    1
    12    22    23    1
    13    23    24    1
    14    24    25    1
    15     4     5    1
    16     5     6   am
    17     6     7    2
    18     6     8    1
    19     8     9    1
    20     9    10    1
    21    10    11    1
    22    11    26    1
    23    26    27    1
    24    27    28   ar
    25    28    29   ar
    26    29    30   ar
    27    30    33    1
    28    33    34    1
    29    34    35   ar
    30    35    36   ar
    31    36    37   ar
    32    37    38   ar
    33    38    39   ar
    34    30    31   ar
    35    31    32   ar
    36    11    12    1
    37    12    13    1
    38     8     1    1
    39    32    27   ar
    40    25    20    1
    41    13     8    1
    42    39    34   ar
    43     5    14    1
@<TRIPOS>MOLECULE
*****
 39 43 0 0 0
SMALL
GASTEIGER

@<TRIPOS>ATOM
      1 N          62.1431   87.4144   11.2296 N.am    1  UNL1       -0.2734
      2 C          63.0196   87.3927   12.4468 C.2     1  UNL1        0.2438
      3 O          63.4438   86.0830   13.0423 O.2     1  UNL1       -0.2731
      4 C          63.4718   88.6808   13.0684 C.3     1  UNL1        0.1488
      5 N          63.0476   89.9905   12.4729 N.am    1  UNL1       -0.2970
      6 C          62.1712   90.0122   11.2558 C.2     1  UNL1        0.2389
      7 O          61.7470   91.3220   10.6603 O.2     1  UNL1       -0.2734
      8 C          61.7190   88.7242   10.6342 C.3     1  UNL1        0.1314
      9 C          61.2667   87.4362   10.0125 C.3     1  UNL1        0.0445
     10 C          60.3903   87.4579    8.7954 C.3     1  UNL1        0.0745
     11 N          59.9662   88.7676    8.1999 N.3     1  UNL1       -0.2688
     12 C          60.4184   90.0557    8.8216 C.3     1  UNL1        0.0745
     13 C          61.2948   90.0339   10.0387 C.3     1  UNL1        0.0445
     14 H          63.3444   90.8359   12.8810 H       1  UNL1        0.1499
     15 C          61.6909   86.1264   10.6080 C.3     1  UNL1        0.0938
     16 C          62.5823   84.9207   10.6481 C.3     1  UNL1        0.0215
     17 C          63.0019   85.0795    8.0891 C.3     1  UNL1        0.0001
     18 C          63.3758   84.5339    9.4354 C.3     1  UNL1        0.0018
     19 C          64.3483   88.6591   14.2856 C.3     1  UNL1        0.0290
     20 C          64.7379   89.9450   14.9522 C.3     1  UNL1        0.0021
     21 C          63.8647   90.5297   16.0226 C.3     1  UNL1        0.0001
     22 C          64.2544   91.8156   16.6892 C.3     1  UNL1        0.0000
     23 C          65.5174   92.5170   16.2854 C.3     1  UNL1        0.0000
     24 C          66.3906   91.9324   15.2151 C.3     1  UNL1        0.0000
     25 C          66.0009   90.6464   14.5485 C.3     1  UNL1        0.0001
     26 C          59.0897   88.7893    6.9828 C.3     1  UNL1        0.0992
     27 C          59.1733   89.9354    6.0187 C.ar    1  UNL1       -0.0059
     28 C          60.5016   90.3469    5.4561 C.ar    1  UNL1        0.0002
     29 C          60.5852   91.4930    4.4920 C.ar    1  UNL1        0.0372
     30 C          59.3405   92.2276    4.0904 C.ar    1  UNL1        0.1453
     31 C          58.0123   91.8161    4.6530 C.ar    1  UNL1        0.0372
     32 C          57.9287   90.6700    5.6171 C.ar    1  UNL1        0.0002
     33 O          59.4242   93.3736    3.1263 O.3     1  UNL1       -0.4535
     34 C          60.1066   93.1922    1.8030 C.ar    1  UNL1        0.1453
     35 C          59.3067   92.8114    0.5926 C.ar    1  UNL1        0.0375
     36 C          59.9892   92.6300   -0.7308 C.ar    1  UNL1        0.0031
     37 C          61.4716   92.8293   -0.8438 C.ar    1  UNL1        0.0002
     38 C          62.2716   93.2101    0.3667 C.ar    1  UNL1        0.0031
     39 C          61.5891   93.3915    1.6900 C.ar    1  UNL1        0.0375
@<TRIPOS>BOND
     1    17    18    1
     2    18    16    1
     3    16    15    1
     4    15     1    1
     5     1     2   am
     6     2     3    2
     7     2     4    1
     8     4    19    1
     9    19    20    1
    10    20    21    1
    11    21    22    1
    12    22    23    1
    13    23    24    1
    14    24    25    1
    15     4     5    1
    16     5     6   am
    17     6     7    2
    18     6     8    1
    19     8     9    1
    20     9    10    1
    21    10    11    1
    22    11    26    1
    23    26    27    1
    24    27    28   ar
    25    28    29   ar
    26    29    30   ar
    27    30    33    1
    28    33    34    1
    29    34    35   ar
    30    35    36   ar
    31    36    37   ar
    32    37    38   ar
    33    38    39   ar
    34    30    31   ar
    35    31    32   ar
    36    11    12    1
    37    12    13    1
    38     8     1    1
    39    32    27   ar
    40    25    20    1
    41    13     8    1
    42    39    34   ar
    43     5    14    1
@<TRIPOS>MOLECULE
*****
 39 43 0 0 0
SMALL
GASTEIGER

@<TRIPOS>ATOM
      1 N          64.9357   91.9060   12.3368 N.am    1  UNL1       -0.2734
      2 C          65.6008   92.9237   11.4581 C.2     1  UNL1        0.2438
      3 O          65.3927   92.8830    9.9731 O.2     1  UNL1       -0.2731
      4 C          66.4739   93.9821   12.0643 C.3     1  UNL1        0.1488
      5 N          66.6820   94.0228   13.5492 N.am    1  UNL1       -0.2970
      6 C          66.0170   93.0052   14.4279 C.2     1  UNL1        0.2389
      7 O          66.2251   93.0460   15.9129 O.2     1  UNL1       -0.2734
      8 C          65.1438   91.9468   13.8217 C.3     1  UNL1        0.1314
      9 C          64.2708   90.8884   13.2155 C.3     1  UNL1        0.0445
     10 C          63.6058   89.8708   14.0942 C.3     1  UNL1        0.0745
     11 N          63.8139   89.9115   15.5792 N.3     1  UNL1       -0.2688
     12 C          64.6870   90.9699   16.1854 C.3     1  UNL1        0.0745
     13 C          65.3519   91.9875   15.3067 C.3     1  UNL1        0.0445
     14 H          67.2550   94.7175   13.9471 H       1  UNL1        0.1499
     15 C          64.0627   90.8476   11.7306 C.3     1  UNL1        0.0938
     16 C          62.8077   91.2350   11.0061 C.3     1  UNL1        0.0215
     17 C          62.3533   88.7397   10.4431 C.3     1  UNL1        0.0001
     18 C          61.9961   90.1895   10.3001 C.3     1  UNL1        0.0018
     19 C          67.1389   94.9998   11.1855 C.3     1  UNL1        0.0290
     20 C          66.3813   95.6183   10.0483 C.3     1  UNL1        0.0021
     21 C          65.0368   96.2375   10.2914 C.3     1  UNL1        0.0001
     22 C          64.2793   96.8560    9.1541 C.3     1  UNL1        0.0000
     23 C          64.8661   96.8554    7.7736 C.3     1  UNL1        0.0000
     24 C          66.2106   96.2363    7.5305 C.3     1  UNL1        0.0000
     25 C          66.9682   95.6177    8.6679 C.3     1  UNL1        0.0001
     26 C          63.1489   88.8938   16.4579 C.3     1  UNL1        0.0992
     27 C          63.3296   87.4308   16.1806 C.ar    1  UNL1       -0.0059
     28 C          62.4825   86.4214   16.8971 C.ar    1  UNL1        0.0002
     29 C          62.6633   84.9583   16.6198 C.ar    1  UNL1        0.0372
     30 C          63.6912   84.5048   15.6260 C.ar    1  UNL1        0.1453
     31 C          64.5384   85.5142   14.9096 C.ar    1  UNL1        0.0372
     32 C          64.3576   86.9772   15.1868 C.ar    1  UNL1        0.0002
     33 O          63.8720   83.0418   15.3488 O.3     1  UNL1       -0.4535
     34 C          63.6570   82.5088   13.9632 C.ar    1  UNL1        0.1453
     35 C          62.8578   81.2563   13.7571 C.ar    1  UNL1        0.0375
     36 C          62.6427   80.7234   12.3715 C.ar    1  UNL1        0.0031
     37 C          63.2269   81.4429   11.1921 C.ar    1  UNL1        0.0002
     38 C          64.0261   82.6955   11.3983 C.ar    1  UNL1        0.0031
     39 C          64.2412   83.2284   12.7838 C.ar    1  UNL1        0.0375
@<TRIPOS>BOND
     1    17    18    1
     2    18    16    1
     3    16    15    1
     4    15     1    1
     5     1     2   am
     6     2     3    2
     7     2     4    1
     8     4    19    1
     9    19    20    1
    10    20    21    1
    11    21    22    1
    12    22    23    1
    13    23    24    1
    14    24    25    1
    15     4     5    1
    16     5     6   am
    17     6     7    2
    18     6     8    1
    19     8     9    1
    20     9    10    1
    21    10    11    1
    22    11    26    1
    23    26    27    1
    24    27    28   ar
    25    28    29   ar
    26    29    30   ar
    27    30    33    1
    28    33    34    1
    29    34    35   ar
    30    35    36   ar
    31    36    37   ar
    32    37    38   ar
    33    38    39   ar
    34    30    31   ar
    35    31    32   ar
    36    11    12    1
    37    12    13    1
    38     8     1    1
    39    32    27   ar
    40    25    20    1
    41    13     8    1
    42    39    34   ar
    43     5    14    1
@<TRIPOS>MOLECULE
*****
 39 43 0 0 0
SMALL
GASTEIGER

@<TRIPOS>ATOM
      1 N          62.6865   86.6427   11.7191 N.am    1  UNL1       -0.2734
      2 C          62.4518   85.2665   11.1704 C.2     1  UNL1        0.2438
      3 O          61.6340   85.0847    9.9261 O.2     1  UNL1       -0.2731
      4 C          63.0348   84.0723   11.8658 C.3     1  UNL1        0.1488
      5 N          63.8526   84.2541   13.1101 N.am    1  UNL1       -0.2970
      6 C          64.0874   85.6302   13.6588 C.2     1  UNL1        0.2389
      7 O          64.9052   85.8120   14.9031 O.2     1  UNL1       -0.2734
      8 C          63.5043   86.8246   12.9634 C.3     1  UNL1        0.1314
      9 C          62.9213   88.0188   12.2679 C.3     1  UNL1        0.0445
     10 C          63.1560   89.3949   12.8167 C.3     1  UNL1        0.0745
     11 N          63.9738   89.5767   14.0609 N.3     1  UNL1       -0.2688
     12 C          64.5569   88.3825   14.7564 C.3     1  UNL1        0.0745
     13 C          64.3221   87.0064   14.2076 C.3     1  UNL1        0.0445
     14 H          64.2353   83.4702   13.5665 H       1  UNL1        0.1499
     15 C          62.1035   87.8370   11.0237 C.3     1  UNL1        0.0938
     16 C          60.6930   87.7941   10.5149 C.3     1  UNL1        0.0215
     17 C          59.4187   87.3478    8.2953 C.3     1  UNL1        0.0001
     18 C          60.3981   88.1594    9.0903 C.3     1  UNL1        0.0018
     19 C          62.8001   82.6961   11.3171 C.3     1  UNL1        0.0290
     20 C          62.3935   81.5818   12.2352 C.3     1  UNL1        0.0021
     21 C          62.8368   80.1771   11.9520 C.3     1  UNL1        0.0001
     22 C          62.4302   79.0628   12.8702 C.3     1  UNL1        0.0000
     23 C          61.5802   79.3533   14.0716 C.3     1  UNL1        0.0000
     24 C          61.1369   80.7580   14.3547 C.3     1  UNL1        0.0000
     25 C          61.5436   81.8723   13.4365 C.3     1  UNL1        0.0001
     26 C          64.2086   90.9529   14.6097 C.3     1  UNL1        0.0992
     27 C          64.9540   91.9681   13.7951 C.ar    1  UNL1       -0.0059
     28 C          65.8622   92.9520   14.4712 C.ar    1  UNL1        0.0002
     29 C          66.6077   93.9672   13.6565 C.ar    1  UNL1        0.0372
     30 C          66.4450   93.9985   12.1657 C.ar    1  UNL1        0.1453
     31 C          65.5368   93.0146   11.4896 C.ar    1  UNL1        0.0372
     32 C          64.7914   91.9994   12.3042 C.ar    1  UNL1        0.0002
     33 O          67.1905   95.0137   11.3511 O.3     1  UNL1       -0.4535
     34 C          66.5587   95.6010   10.1239 C.ar    1  UNL1        0.1453
     35 C          67.2704   95.5275    8.8056 C.ar    1  UNL1        0.0375
     36 C          66.6387   96.1148    7.5785 C.ar    1  UNL1        0.0031
     37 C          65.2953   96.7757    7.6696 C.ar    1  UNL1        0.0002
     38 C          64.5835   96.8493    8.9880 C.ar    1  UNL1        0.0031
     39 C          65.2152   96.2619   10.2151 C.ar    1  UNL1        0.0375
@<TRIPOS>BOND
     1    17    18    1
     2    18    16    1
     3    16    15    1
     4    15     1    1
     5     1     2   am
     6     2     3    2
     7     2     4    1
     8     4    19    1
     9    19    20    1
    10    20    21    1
    11    21    22    1
    12    22    23    1
    13    23    24    1
    14    24    25    1
    15     4     5    1
    16     5     6   am
    17     6     7    2
    18     6     8    1
    19     8     9    1
    20     9    10    1
    21    10    11    1
    22    11    26    1
    23    26    27    1
    24    27    28   ar
    25    28    29   ar
    26    29    30   ar
    27    30    33    1
    28    33    34    1
    29    34    35   ar
    30    35    36   ar
    31    36    37   ar
    32    37    38   ar
    33    38    39   ar
    34    30    31   ar
    35    31    32   ar
    36    11    12    1
    37    12    13    1
    38     8     1    1
    39    32    27   ar
    40    25    20    1
    41    13     8    1
    42    39    34   ar
    43     5    14    1
@<TRIPOS>MOLECULE
*****
 39 43 0 0 0
SMALL
GASTEIGER

@<TRIPOS>ATOM
      1 N          61.5010   86.2240    9.6014 N.am    1  UNL1       -0.2734
      2 C          62.3517   85.5367   10.6281 C.2     1  UNL1        0.2438
      3 O          62.7340   84.0980   10.4440 O.2     1  UNL1       -0.2731
      4 C          62.8199   86.2881   11.8389 C.3     1  UNL1        0.1488
      5 N          62.4375   87.7268   12.0231 N.am    1  UNL1       -0.2970
      6 C          61.5870   88.4141   10.9964 C.2     1  UNL1        0.2389
      7 O          61.2046   89.8528   11.1806 O.2     1  UNL1       -0.2734
      8 C          61.1187   87.6627    9.7855 C.3     1  UNL1        0.1314
      9 C          60.6505   86.9113    8.5747 C.3     1  UNL1        0.0445
     10 C          59.7999   87.5986    7.5481 C.3     1  UNL1        0.0745
     11 N          59.4175   89.0373    7.7322 N.3     1  UNL1       -0.2688
     12 C          59.8858   89.7887    8.9430 C.3     1  UNL1        0.0745
     13 C          60.7363   89.1014    9.9697 C.3     1  UNL1        0.0445
     14 H          62.7449   88.2200   12.8178 H       1  UNL1        0.1499
     15 C          61.0328   85.4726    8.3906 C.3     1  UNL1        0.0938
     16 C          62.0292   84.9678    7.3894 C.3     1  UNL1        0.0215
     17 C          62.2070   84.4079    4.8586 C.3     1  UNL1        0.0001
     18 C          61.5637   84.1879    6.1957 C.3     1  UNL1        0.0018
     19 C          63.6705   85.6008   12.8657 C.3     1  UNL1        0.0290
     20 C          63.4221   84.1605   13.2031 C.3     1  UNL1        0.0021
     21 C          62.2942   83.7887   14.1194 C.3     1  UNL1        0.0001
     22 C          62.0458   82.3484   14.4569 C.3     1  UNL1        0.0000
     23 C          62.9252   81.2799   13.8780 C.3     1  UNL1        0.0000
     24 C          64.0531   81.6518   12.9617 C.3     1  UNL1        0.0000
     25 C          64.3015   83.0922   12.6243 C.3     1  UNL1        0.0001
     26 C          58.5669   89.7246    6.7055 C.3     1  UNL1        0.0992
     27 C          59.2053   90.5923    5.6617 C.ar    1  UNL1       -0.0059
     28 C          58.3696   91.5596    4.8769 C.ar    1  UNL1        0.0002
     29 C          59.0081   92.4273    3.8330 C.ar    1  UNL1        0.0372
     30 C          60.4822   92.3277    3.5741 C.ar    1  UNL1        0.1453
     31 C          61.3179   91.3604    4.3589 C.ar    1  UNL1        0.0372
     32 C          60.6795   90.4927    5.4027 C.ar    1  UNL1        0.0002
     33 O          61.1206   93.1954    2.5303 O.3     1  UNL1       -0.4535
     34 C          60.4020   93.4720    1.2429 C.ar    1  UNL1        0.1453
     35 C          59.8042   94.8248    0.9934 C.ar    1  UNL1        0.0375
     36 C          59.0857   95.1014   -0.2939 C.ar    1  UNL1        0.0031
     37 C          58.9650   94.0251   -1.3317 C.ar    1  UNL1        0.0002
     38 C          59.5629   92.6722   -1.0822 C.ar    1  UNL1        0.0031
     39 C          60.2814   92.3956    0.2051 C.ar    1  UNL1        0.0375
@<TRIPOS>BOND
     1    17    18    1
     2    18    16    1
     3    16    15    1
     4    15     1    1
     5     1     2   am
     6     2     3    2
     7     2     4    1
     8     4    19    1
     9    19    20    1
    10    20    21    1
    11    21    22    1
    12    22    23    1
    13    23    24    1
    14    24    25    1
    15     4     5    1
    16     5     6   am
    17     6     7    2
    18     6     8    1
    19     8     9    1
    20     9    10    1
    21    10    11    1
    22    11    26    1
    23    26    27    1
    24    27    28   ar
    25    28    29   ar
    26    29    30   ar
    27    30    33    1
    28    33    34    1
    29    34    35   ar
    30    35    36   ar
    31    36    37   ar
    32    37    38   ar
    33    38    39   ar
    34    30    31   ar
    35    31    32   ar
    36    11    12    1
    37    12    13    1
    38     8     1    1
    39    32    27   ar
    40    25    20    1
    41    13     8    1
    42    39    34   ar
    43     5    14    1
@<TRIPOS>MOLECULE
*****
 39 43 0 0 0
SMALL
GASTEIGER

@<TRIPOS>ATOM
      1 N          63.6976   85.1109   13.9746 N.am    1  UNL1       -0.2734
      2 C          63.8656   83.6255   14.0988 C.2     1  UNL1        0.2438
      3 O          64.5761   83.0478   15.2869 O.2     1  UNL1       -0.2731
      4 C          63.3232   82.7178   13.0349 C.3     1  UNL1        0.1488
      5 N          62.6128   83.2954   11.8468 N.am    1  UNL1       -0.2970
      6 C          62.4447   84.7807   11.7226 C.2     1  UNL1        0.2389
      7 O          61.7343   85.3584   10.5345 O.2     1  UNL1       -0.2734
      8 C          62.9871   85.6885   12.7865 C.3     1  UNL1        0.1314
      9 C          63.5295   86.5962   13.8503 C.3     1  UNL1        0.0445
     10 C          63.3615   88.0816   13.7261 C.3     1  UNL1        0.0745
     11 N          62.6510   88.6592   12.5379 N.3     1  UNL1       -0.2688
     12 C          62.1086   87.7515   11.4741 C.3     1  UNL1        0.0745
     13 C          62.2767   86.2662   11.5983 C.3     1  UNL1        0.0445
     14 H          62.2568   82.6996   11.1486 H       1  UNL1        0.1499
     15 C          64.2400   86.0186   15.0384 C.3     1  UNL1        0.0938
     16 C          63.9383   85.7460   16.4823 C.3     1  UNL1        0.0215
     17 C          62.8823   87.8521   17.5775 C.3     1  UNL1        0.0001
     18 C          62.7737   86.4198   17.1452 C.3     1  UNL1        0.0018
     19 C          63.4913   81.2323   13.1591 C.3     1  UNL1        0.0290
     20 C          63.1813   80.3423   11.9922 C.3     1  UNL1        0.0021
     21 C          63.3393   80.8583   10.5926 C.3     1  UNL1        0.0001
     22 C          63.0293   79.9682    9.4257 C.3     1  UNL1        0.0000
     23 C          62.5613   78.5622    9.6584 C.3     1  UNL1        0.0000
     24 C          62.4033   78.0462   11.0580 C.3     1  UNL1        0.0000
     25 C          62.7133   78.9363   12.2249 C.3     1  UNL1        0.0001
     26 C          62.4830   90.1446   12.4137 C.3     1  UNL1        0.0992
     27 C          63.6786   91.0168   12.1694 C.ar    1  UNL1       -0.0059
     28 C          63.8560   91.6916   10.8415 C.ar    1  UNL1        0.0002
     29 C          65.0517   92.5638   10.5973 C.ar    1  UNL1        0.0372
     30 C          66.0699   92.7613   11.6808 C.ar    1  UNL1        0.1453
     31 C          65.8925   92.0865   13.0087 C.ar    1  UNL1        0.0372
     32 C          64.6969   91.2143   13.2530 C.ar    1  UNL1        0.0002
     33 O          67.2655   93.6335   11.4365 O.3     1  UNL1       -0.4535
     34 C          67.2659   94.6021   10.2912 C.ar    1  UNL1        0.1453
     35 C          68.0324   94.2854    9.0414 C.ar    1  UNL1        0.0375
     36 C          68.0327   95.2540    7.8960 C.ar    1  UNL1        0.0031
     37 C          67.2665   96.5392    8.0005 C.ar    1  UNL1        0.0002
     38 C          66.4999   96.8560    9.2504 C.ar    1  UNL1        0.0031
     39 C          66.4996   95.8874   10.3957 C.ar    1  UNL1        0.0375
@<TRIPOS>BOND
     1    17    18    1
     2    18    16    1
     3    16    15    1
     4    15     1    1
     5     1     2   am
     6     2     3    2
     7     2     4    1
     8     4    19    1
     9    19    20    1
    10    20    21    1
    11    21    22    1
    12    22    23    1
    13    23    24    1
    14    24    25    1
    15     4     5    1
    16     5     6   am
    17     6     7    2
    18     6     8    1
    19     8     9    1
    20     9    10    1
    21    10    11    1
    22    11    26    1
    23    26    27    1
    24    27    28   ar
    25    28    29   ar
    26    29    30   ar
    27    30    33    1
    28    33    34    1
    29    34    35   ar
    30    35    36   ar
    31    36    37   ar
    32    37    38   ar
    33    38    39   ar
    34    30    31   ar
    35    31    32   ar
    36    11    12    1
    37    12    13    1
    38     8     1    1
    39    32    27   ar
    40    25    20    1
    41    13     8    1
    42    39    34   ar
    43     5    14    1
@<TRIPOS>MOLECULE
*****
 39 43 0 0 0
SMALL
GASTEIGER

@<TRIPOS>ATOM
      1 N          62.9940   85.1483   12.4409 N.am    1  UNL1       -0.2734
      2 C          63.0072   83.6495   12.3795 C.2     1  UNL1        0.2438
      3 O          62.3916   82.9414   11.2092 O.2     1  UNL1       -0.2731
      4 C          63.6361   82.8590   13.4883 C.3     1  UNL1        0.1488
      5 N          64.2517   83.5671   14.6586 N.am    1  UNL1       -0.2970
      6 C          64.2386   85.0657   14.7201 C.2     1  UNL1        0.2389
      7 O          64.8542   85.7738   15.8904 O.2     1  UNL1       -0.2734
      8 C          63.6097   85.8564   13.6112 C.3     1  UNL1        0.1314
      9 C          62.9809   86.6469   12.5024 C.3     1  UNL1        0.0445
     10 C          62.9677   88.1456   12.5639 C.3     1  UNL1        0.0745
     11 N          63.5834   88.8537   13.7341 N.3     1  UNL1       -0.2688
     12 C          64.2122   88.0631   14.8430 C.3     1  UNL1        0.0745
     13 C          64.2254   86.5644   14.7815 C.3     1  UNL1        0.0445
     14 H          64.6645   83.0482   15.3864 H       1  UNL1        0.1499
     15 C          62.3652   85.9388   11.3321 C.3     1  UNL1        0.0938
     16 C          62.5961   85.5425    9.9040 C.3     1  UNL1        0.0215
     17 C          60.6208   86.7018    8.6776 C.3     1  UNL1        0.0001
     18 C          62.0881   86.4124    8.7927 C.3     1  UNL1        0.0018
     19 C          63.6493   81.3602   13.4269 C.3     1  UNL1        0.0290
     20 C          62.3826   80.5892   13.6527 C.3     1  UNL1        0.0021
     21 C          61.1449   81.2989   14.1157 C.3     1  UNL1        0.0001
     22 C          59.8783   80.5279   14.3415 C.3     1  UNL1        0.0000
     23 C          59.8493   79.0470   14.1043 C.3     1  UNL1        0.0000
     24 C          61.0869   78.3372   13.6413 C.3     1  UNL1        0.0000
     25 C          62.3536   79.1084   13.4155 C.3     1  UNL1        0.0001
     26 C          63.5702   90.3524   13.7956 C.3     1  UNL1        0.0992
     27 C          64.5680   91.1443   13.0036 C.ar    1  UNL1       -0.0059
     28 C          64.2422   91.5765   11.6047 C.ar    1  UNL1        0.0002
     29 C          65.2401   92.3684   10.8127 C.ar    1  UNL1        0.0372
     30 C          66.5637   92.7281   11.4197 C.ar    1  UNL1        0.1453
     31 C          66.8896   92.2959   12.8187 C.ar    1  UNL1        0.0372
     32 C          65.8918   91.5040   13.6106 C.ar    1  UNL1        0.0002
     33 O          67.5616   93.5200   10.6278 O.3     1  UNL1       -0.4535
     34 C          67.0965   94.6245    9.7257 C.ar    1  UNL1        0.1453
     35 C          67.4569   94.6057    8.2698 C.ar    1  UNL1        0.0375
     36 C          66.9918   95.7102    7.3677 C.ar    1  UNL1        0.0031
     37 C          66.1664   96.8335    7.9215 C.ar    1  UNL1        0.0002
     38 C          65.8059   96.8524    9.3775 C.ar    1  UNL1        0.0031
     39 C          66.2710   95.7479   10.2796 C.ar    1  UNL1        0.0375
@<TRIPOS>BOND
     1    17    18    1
     2    18    16    1
     3    16    15    1
     4    15     1    1
     5     1     2   am
     6     2     3    2
     7     2     4    1
     8     4    19    1
     9    19    20    1
    10    20    21    1
    11    21    22    1
    12    22    23    1
    13    23    24    1
    14    24    25    1
    15     4     5    1
    16     5     6   am
    17     6     7    2
    18     6     8    1
    19     8     9    1
    20     9    10    1
    21    10    11    1
    22    11    26    1
    23    26    27    1
    24    27    28   ar
    25    28    29   ar
    26    29    30   ar
    27    30    33    1
    28    33    34    1
    29    34    35   ar
    30    35    36   ar
    31    36    37   ar
    32    37    38   ar
    33    38    39   ar
    34    30    31   ar
    35    31    32   ar
    36    11    12    1
    37    12    13    1
    38     8     1    1
    39    32    27   ar
    40    25    20    1
    41    13     8    1
    42    39    34   ar
    43     5    14    1
@<TRIPOS>MOLECULE
*****
 39 43 0 0 0
SMALL
GASTEIGER

@<TRIPOS>ATOM
      1 N          61.7204   85.6905    9.0047 N.am    1  UNL1       -0.2734
      2 C          62.6423   84.9264    9.9083 C.2     1  UNL1        0.2438
      3 O          63.4406   83.7775    9.3673 O.2     1  UNL1       -0.2731
      4 C          62.7658   85.3112   11.3527 C.3     1  UNL1        0.1488
      5 N          61.9675   86.4601   11.8937 N.am    1  UNL1       -0.2970
      6 C          61.0457   87.2242   10.9902 C.2     1  UNL1        0.2389
      7 O          60.2473   88.3731   11.5312 O.2     1  UNL1       -0.2734
      8 C          60.9221   86.8394    9.5457 C.3     1  UNL1        0.1314
      9 C          60.7986   86.4546    8.1012 C.3     1  UNL1        0.0445
     10 C          59.8768   87.2187    7.1977 C.3     1  UNL1        0.0745
     11 N          59.0785   88.3676    7.7387 N.3     1  UNL1       -0.2688
     12 C          59.2020   88.7524    9.1832 C.3     1  UNL1        0.0745
     13 C          60.1238   87.9883   10.0867 C.3     1  UNL1        0.0445
     14 H          62.0485   86.7127   12.8418 H       1  UNL1        0.1499
     15 C          61.5969   85.3057    7.5602 C.3     1  UNL1        0.0938
     16 C          62.8200   84.9314    6.7765 C.3     1  UNL1        0.0215
     17 C          61.3294   83.9612    4.8826 C.3     1  UNL1        0.0001
     18 C          62.6837   84.1648    5.4944 C.3     1  UNL1        0.0018
     19 C          63.6877   84.5471   12.2563 C.3     1  UNL1        0.0290
     20 C          63.2619   83.2218   12.8151 C.3     1  UNL1        0.0021
     21 C          62.5092   83.1612   14.1112 C.3     1  UNL1        0.0001
     22 C          62.0834   81.8360   14.6700 C.3     1  UNL1        0.0000
     23 C          62.4103   80.5712   13.9327 C.3     1  UNL1        0.0000
     24 C          63.1629   80.6317   12.6366 C.3     1  UNL1        0.0000
     25 C          63.5887   81.9571   12.0778 C.3     1  UNL1        0.0001
     26 C          58.1566   89.1317    6.8351 C.3     1  UNL1        0.0992
     27 C          58.7071   90.1822    5.9167 C.ar    1  UNL1       -0.0059
     28 C          60.1877   90.2885    5.7008 C.ar    1  UNL1        0.0002
     29 C          60.7381   91.3390    4.7823 C.ar    1  UNL1        0.0372
     30 C          59.8080   92.2832    4.0800 C.ar    1  UNL1        0.1453
     31 C          58.3275   92.1769    4.2959 C.ar    1  UNL1        0.0372
     32 C          57.7770   91.1264    5.2143 C.ar    1  UNL1        0.0002
     33 O          60.3585   93.3337    3.1616 O.3     1  UNL1       -0.4535
     34 C          61.7084   93.1488    2.5342 C.ar    1  UNL1        0.1453
     35 C          62.5604   91.9760    2.9199 C.ar    1  UNL1        0.0375
     36 C          63.9103   91.7912    2.2925 C.ar    1  UNL1        0.0031
     37 C          64.4082   92.7790    1.2795 C.ar    1  UNL1        0.0002
     38 C          63.5562   93.9518    0.8939 C.ar    1  UNL1        0.0031
     39 C          62.2063   94.1367    1.5212 C.ar    1  UNL1        0.0375
@<TRIPOS>BOND
     1    17    18    1
     2    18    16    1
     3    16    15    1
     4    15     1    1
     5     1     2   am
     6     2     3    2
     7     2     4    1
     8     4    19    1
     9    19    20    1
    10    20    21    1
    11    21    22    1
    12    22    23    1
    13    23    24    1
    14    24    25    1
    15     4     5    1
    16     5     6   am
    17     6     7    2
    18     6     8    1
    19     8     9    1
    20     9    10    1
    21    10    11    1
    22    11    26    1
    23    26    27    1
    24    27    28   ar
    25    28    29   ar
    26    29    30   ar
    27    30    33    1
    28    33    34    1
    29    34    35   ar
    30    35    36   ar
    31    36    37   ar
    32    37    38   ar
    33    38    39   ar
    34    30    31   ar
    35    31    32   ar
    36    11    12    1
    37    12    13    1
    38     8     1    1
    39    32    27   ar
    40    25    20    1
    41    13     8    1
    42    39    34   ar
    43     5    14    1
@<TRIPOS>MOLECULE
*****
 39 43 0 0 0
SMALL
GASTEIGER

@<TRIPOS>ATOM
      1 N          63.8807   90.4842   12.2299 N.am    1  UNL1       -0.2734
      2 C          64.2500   91.6111   11.3114 C.2     1  UNL1        0.2438
      3 O          63.8581   91.5584    9.8644 O.2     1  UNL1       -0.2731
      4 C          65.0112   92.7906   11.8397 C.3     1  UNL1        0.1488
      5 N          65.4031   92.8433   13.2867 N.am    1  UNL1       -0.2970
      6 C          65.0338   91.7165   14.2052 C.2     1  UNL1        0.2389
      7 O          65.4257   91.7692   15.6522 O.2     1  UNL1       -0.2734
      8 C          64.2726   90.5369   13.6769 C.3     1  UNL1        0.1314
      9 C          63.5114   89.3573   13.1485 C.3     1  UNL1        0.0445
     10 C          63.1421   88.2305   14.0671 C.3     1  UNL1        0.0745
     11 N          63.5340   88.2832   15.5140 N.3     1  UNL1       -0.2688
     12 C          64.2952   89.4627   16.0424 C.3     1  UNL1        0.0745
     13 C          64.6645   90.5896   15.1238 C.3     1  UNL1        0.0445
     14 H          65.9027   93.6175   13.6335 H       1  UNL1        0.1499
     15 C          63.1195   89.3047   11.7016 C.3     1  UNL1        0.0938
     16 C          62.2736   89.4479   10.4711 C.3     1  UNL1        0.0215
     17 C          60.2085   87.9014   10.1651 C.3     1  UNL1        0.0001
     18 C          61.6367   88.2383    9.8538 C.3     1  UNL1        0.0018
     19 C          65.3805   93.9176   10.9212 C.3     1  UNL1        0.0290
     20 C          66.5180   93.7570    9.9567 C.3     1  UNL1        0.0021
     21 C          66.8144   94.8379    8.9598 C.3     1  UNL1        0.0001
     22 C          67.9520   94.6772    7.9954 C.3     1  UNL1        0.0000
     23 C          68.7932   93.4357    8.0278 C.3     1  UNL1        0.0000
     24 C          68.4967   92.3548    9.0247 C.3     1  UNL1        0.0000
     25 C          67.3592   92.5154    9.9892 C.3     1  UNL1        0.0001
     26 C          63.1647   87.1563   16.4326 C.3     1  UNL1        0.0992
     27 C          63.2235   85.7396   15.9431 C.ar    1  UNL1       -0.0059
     28 C          64.5324   85.1504   15.5074 C.ar    1  UNL1        0.0002
     29 C          64.5912   83.7337   15.0179 C.ar    1  UNL1        0.0372
     30 C          63.3412   82.9063   14.9640 C.ar    1  UNL1        0.1453
     31 C          62.0324   83.4955   15.3997 C.ar    1  UNL1        0.0372
     32 C          61.9735   84.9121   15.8892 C.ar    1  UNL1        0.0002
     33 O          63.4001   81.4897   14.4745 O.3     1  UNL1       -0.4535
     34 C          63.2844   81.1976   13.0078 C.ar    1  UNL1        0.1453
     35 C          63.6566   82.2467   12.0025 C.ar    1  UNL1        0.0375
     36 C          63.5409   81.9546   10.5357 C.ar    1  UNL1        0.0031
     37 C          63.0531   80.6133   10.0743 C.ar    1  UNL1        0.0002
     38 C          62.6808   79.5641   11.0797 C.ar    1  UNL1        0.0031
     39 C          62.7965   79.8562   12.5464 C.ar    1  UNL1        0.0375
@<TRIPOS>BOND
     1    17    18    1
     2    18    16    1
     3    16    15    1
     4    15     1    1
     5     1     2   am
     6     2     3    2
     7     2     4    1
     8     4    19    1
     9    19    20    1
    10    20    21    1
    11    21    22    1
    12    22    23    1
    13    23    24    1
    14    24    25    1
    15     4     5    1
    16     5     6   am
    17     6     7    2
    18     6     8    1
    19     8     9    1
    20     9    10    1
    21    10    11    1
    22    11    26    1
    23    26    27    1
    24    27    28   ar
    25    28    29   ar
    26    29    30   ar
    27    30    33    1
    28    33    34    1
    29    34    35   ar
    30    35    36   ar
    31    36    37   ar
    32    37    38   ar
    33    38    39   ar
    34    30    31   ar
    35    31    32   ar
    36    11    12    1
    37    12    13    1
    38     8     1    1
    39    32    27   ar
    40    25    20    1
    41    13     8    1
    42    39    34   ar
    43     5    14    1
