@<TRIPOS>MOLECULE
*****
 32 35 0 0 0
SMALL
GASTEIGER

@<TRIPOS>ATOM
      1 N          64.0488   90.0828   13.8952 N.3     1  UNL1       -0.2622
      2 C          64.9471   91.2734   14.0557 C.3     1  UNL1        0.0981
      3 C          65.5344   91.5941   15.3981 C.3     1  UNL1        0.0224
      4 C          66.4327   92.7847   15.5587 C.3     1  UNL1        0.0065
      5 C          66.7435   93.6545   14.3769 C.3     1  UNL1        0.0277
      6 C          66.1561   93.3337   13.0345 C.ar    1  UNL1       -0.0073
      7 C          66.4670   94.2036   11.8525 C.ar    1  UNL1       -0.0015
      8 C          65.8796   93.8828   10.5102 C.ar    1  UNL1        0.0203
      9 C          64.9814   92.6923   10.3496 C.ar    1  UNL1        0.0985
     10 N          64.6705   91.8225   11.5314 N.ar    1  UNL1       -0.2471
     11 C          65.2579   92.1432   12.8739 C.ar    1  UNL1        0.0695
     12 C          64.4684   88.7484   14.4366 C.3     1  UNL1        0.1292
     13 C          64.4301   85.7807   14.8742 C.3     1  UNL1        0.0298
     14 C          63.7595   86.6926   15.8584 C.2     1  UNL1       -0.0038
     15 C          63.7786   88.1765   15.6396 C.2     1  UNL1        0.1272
     16 F          63.1080   89.0885   16.6237 F       1  UNL1       -0.2080
     17 C          63.0697   86.1208   17.0614 C.3     1  UNL1        0.0899
     18 N          61.5813   86.2433   17.2013 N.3     1  UNL1       -0.3177
     19 H          61.3298   87.2256   17.3113 H       1  UNL1        0.1191
     20 H          61.2726   85.7195   18.0204 H       1  UNL1        0.1191
     21 C          62.7311   90.2268   13.1933 C.3     1  UNL1        0.0889
     22 C          62.3217   89.2257   12.1538 C.3     1  UNL1        0.0748
     23 C          61.4190   89.6387   11.0293 C.3     1  UNL1        0.0432
     24 C          61.0096   88.6377    9.9898 C.ar    1  UNL1       -0.0234
     25 C          60.1069   89.0506    8.8654 C.ar    1  UNL1       -0.0045
     26 C          59.6975   88.0496    7.8260 C.ar    1  UNL1       -0.0003
     27 C          60.1909   86.6356    7.9111 C.ar    1  UNL1       -0.0003
     28 C          61.0937   86.2227    9.0355 C.ar    1  UNL1       -0.0032
     29 C          61.5030   87.2237   10.0749 C.ar    1  UNL1       -0.0103
     30 C          62.4058   86.8108   11.1995 C.3     1  UNL1        0.0953
     31 N          62.8151   87.8118   12.2389 N.3     1  UNL1       -0.2934
     32 H          63.8341   87.8539   12.2219 H       1  UNL1        0.1236
@<TRIPOS>BOND
     1    13    14    1
     2    14    17    1
     3    17    18    1
     4    14    15    2
     5    15    16    1
     6    15    12    1
     7    12     1    1
     8     1    21    1
     9    22    21    1
    10    22    23    1
    11    23    24    1
    12    24    25   ar
    13    25    26   ar
    14    26    27   ar
    15    27    28   ar
    16    28    29   ar
    17    29    30    1
    18    30    31    1
    19     2     1    1
    20     2     3    1
    21     3     4    1
    22     4     5    1
    23     5     6    1
    24     6     7   ar
    25     7     8   ar
    26     8     9   ar
    27     9    10   ar
    28    10    11   ar
    29    31    22    1
    30    11     2    1
    31    29    24   ar
    32    11     6   ar
    33    18    19    1
    34    18    20    1
    35    31    32    1
@<TRIPOS>MOLECULE
*****
 32 35 0 0 0
SMALL
GASTEIGER

@<TRIPOS>ATOM
      1 N          61.4008   87.6027   11.0380 N.3     1  UNL1       -0.2622
      2 C          62.1266   86.4183   10.4720 C.3     1  UNL1        0.0981
      3 C          62.4407   86.3613    9.0064 C.3     1  UNL1        0.0224
      4 C          63.1665   85.1769    8.4404 C.3     1  UNL1        0.0065
      5 C          63.5782   84.0495    9.3400 C.3     1  UNL1        0.0277
      6 C          63.2641   84.1064   10.8056 C.ar    1  UNL1       -0.0073
      7 C          63.6758   82.9789   11.7053 C.ar    1  UNL1       -0.0015
      8 C          63.3617   83.0359   13.1709 C.ar    1  UNL1        0.0203
      9 C          62.6359   84.2203   13.7369 C.ar    1  UNL1        0.0985
     10 N          62.2242   85.3478   12.8373 N.ar    1  UNL1       -0.2471
     11 C          62.5383   85.2909   11.3716 C.ar    1  UNL1        0.0695
     12 C          60.0536   87.9842   10.4999 C.3     1  UNL1        0.1292
     13 C          59.3617   86.9577    7.7672 C.3     1  UNL1        0.0298
     14 C          59.6033   88.4229    7.9790 C.2     1  UNL1       -0.0038
     15 C          59.9493   88.9361    9.3454 C.2     1  UNL1        0.1272
     16 F          60.1908   90.4013    9.5572 F       1  UNL1       -0.2080
     17 C          59.4989   89.3748    6.8245 C.3     1  UNL1        0.0899
     18 N          58.1510   89.7784    6.3047 N.3     1  UNL1       -0.3177
     19 H          57.6859   88.9663    5.8989 H       1  UNL1        0.1191
     20 H          58.2635   90.4979    5.5906 H       1  UNL1        0.1191
     21 C          62.0222   88.4057   12.1421 C.3     1  UNL1        0.0889
     22 C          62.8645   89.6033   11.8161 C.3     1  UNL1        0.0748
     23 C          63.7402   90.2137   12.8699 C.3     1  UNL1        0.0432
     24 C          64.5825   91.4113   12.5438 C.ar    1  UNL1       -0.0234
     25 C          65.4583   92.0216   13.5976 C.ar    1  UNL1       -0.0045
     26 C          66.3005   93.2192   13.2715 C.ar    1  UNL1       -0.0003
     27 C          66.2670   93.8065   11.8916 C.ar    1  UNL1       -0.0003
     28 C          65.3913   93.1961   10.8378 C.ar    1  UNL1       -0.0032
     29 C          64.5490   91.9986   11.1639 C.ar    1  UNL1       -0.0103
     30 C          63.6732   91.3882   10.1101 C.3     1  UNL1        0.0953
     31 N          62.8309   90.1906   10.4362 N.3     1  UNL1       -0.2934
     32 H          63.1116   89.4495    9.7939 H       1  UNL1        0.1236
@<TRIPOS>BOND
     1    13    14    1
     2    14    17    1
     3    17    18    1
     4    14    15    2
     5    15    16    1
     6    15    12    1
     7    12     1    1
     8     1    21    1
     9    22    21    1
    10    22    23    1
    11    23    24    1
    12    24    25   ar
    13    25    26   ar
    14    26    27   ar
    15    27    28   ar
    16    28    29   ar
    17    29    30    1
    18    30    31    1
    19     2     1    1
    20     2     3    1
    21     3     4    1
    22     4     5    1
    23     5     6    1
    24     6     7   ar
    25     7     8   ar
    26     8     9   ar
    27     9    10   ar
    28    10    11   ar
    29    31    22    1
    30    11     2    1
    31    29    24   ar
    32    11     6   ar
    33    18    19    1
    34    18    20    1
    35    31    32    1
@<TRIPOS>MOLECULE
*****
 32 35 0 0 0
SMALL
GASTEIGER

@<TRIPOS>ATOM
      1 N          62.1468   87.6300   10.8829 N.3     1  UNL1       -0.2622
      2 C          62.7588   88.9756   11.1373 C.3     1  UNL1        0.0981
      3 C          62.6705   90.0491   10.0934 C.3     1  UNL1        0.0224
      4 C          63.2825   91.3948   10.3478 C.3     1  UNL1        0.0065
      5 C          63.9828   91.6669   11.6461 C.3     1  UNL1        0.0277
      6 C          64.0711   90.5934   12.6900 C.ar    1  UNL1       -0.0073
      7 C          64.7714   90.8655   13.9883 C.ar    1  UNL1       -0.0015
      8 C          64.8597   89.7919   15.0322 C.ar    1  UNL1        0.0203
      9 C          64.2477   88.4463   14.7778 C.ar    1  UNL1        0.0985
     10 N          63.5474   88.1742   13.4795 N.ar    1  UNL1       -0.2471
     11 C          63.4591   89.2477   12.4356 C.ar    1  UNL1        0.0695
     12 C          60.6571   87.4916   10.7760 C.3     1  UNL1        0.1292
     13 C          60.2270   86.2477    8.0801 C.3     1  UNL1        0.0298
     14 C          59.6934   87.6200    8.3667 C.2     1  UNL1       -0.0038
     15 C          59.9084   88.2420    9.7146 C.2     1  UNL1        0.1272
     16 F          59.3748   89.6142   10.0012 F       1  UNL1       -0.2080
     17 C          58.9447   88.3703    7.3053 C.3     1  UNL1        0.0899
     18 N          59.5103   89.6416    6.7452 N.3     1  UNL1       -0.3177
     19 H          59.5324   90.3543    7.4746 H       1  UNL1        0.1191
     20 H          58.9256   89.9629    5.9736 H       1  UNL1        0.1191
     21 C          63.0246   86.4226   10.7354 C.3     1  UNL1        0.0889
     22 C          62.8411   85.2459   11.6475 C.3     1  UNL1        0.0748
     23 C          62.9323   83.8520   11.1010 C.3     1  UNL1        0.0432
     24 C          62.7488   82.6753   12.0130 C.ar    1  UNL1       -0.0234
     25 C          62.8400   81.2814   11.4666 C.ar    1  UNL1       -0.0045
     26 C          62.6565   80.1048   12.3786 C.ar    1  UNL1       -0.0003
     27 C          62.3817   80.3221   13.8371 C.ar    1  UNL1       -0.0003
     28 C          62.2905   81.7160   14.3836 C.ar    1  UNL1       -0.0032
     29 C          62.4740   82.8926   13.4716 C.ar    1  UNL1       -0.0103
     30 C          62.3828   84.2866   14.0180 C.3     1  UNL1        0.0953
     31 N          62.5663   85.4632   13.1060 N.3     1  UNL1       -0.2934
     32 H          63.3487   86.0032   13.4757 H       1  UNL1        0.1236
@<TRIPOS>BOND
     1    13    14    1
     2    14    17    1
     3    17    18    1
     4    14    15    2
     5    15    16    1
     6    15    12    1
     7    12     1    1
     8     1    21    1
     9    22    21    1
    10    22    23    1
    11    23    24    1
    12    24    25   ar
    13    25    26   ar
    14    26    27   ar
    15    27    28   ar
    16    28    29   ar
    17    29    30    1
    18    30    31    1
    19     2     1    1
    20     2     3    1
    21     3     4    1
    22     4     5    1
    23     5     6    1
    24     6     7   ar
    25     7     8   ar
    26     8     9   ar
    27     9    10   ar
    28    10    11   ar
    29    31    22    1
    30    11     2    1
    31    29    24   ar
    32    11     6   ar
    33    18    19    1
    34    18    20    1
    35    31    32    1
@<TRIPOS>MOLECULE
*****
 32 35 0 0 0
SMALL
GASTEIGER

@<TRIPOS>ATOM
      1 N          62.4546   87.3612   11.8653 N.3     1  UNL1       -0.2622
      2 C          62.8143   88.7832   11.5510 C.3     1  UNL1        0.0981
      3 C          62.4404   89.3758   10.2248 C.3     1  UNL1        0.0224
      4 C          62.8001   90.7977    9.9105 C.3     1  UNL1        0.0065
      5 C          63.5336   91.6270   10.9225 C.3     1  UNL1        0.0277
      6 C          63.9075   91.0344   12.2487 C.ar    1  UNL1       -0.0073
      7 C          64.6411   91.8637   13.2608 C.ar    1  UNL1       -0.0015
      8 C          65.0150   91.2711   14.5870 C.ar    1  UNL1        0.0203
      9 C          64.6553   89.8491   14.9013 C.ar    1  UNL1        0.0985
     10 N          63.9218   89.0198   13.8893 N.ar    1  UNL1       -0.2471
     11 C          63.5478   89.6125   12.5630 C.ar    1  UNL1        0.0695
     12 C          61.0616   86.8664   11.6116 C.3     1  UNL1        0.1292
     13 C          61.7433   85.5622    8.9974 C.3     1  UNL1        0.0298
     14 C          60.6792   86.6178    9.0539 C.2     1  UNL1       -0.0038
     15 C          60.3383   87.2700   10.3610 C.2     1  UNL1        0.1272
     16 F          59.2742   88.3256   10.4175 F       1  UNL1       -0.2080
     17 C          59.9560   87.0214    7.8032 C.3     1  UNL1        0.0899
     18 N          58.4791   86.7886    7.6826 N.3     1  UNL1       -0.3177
     19 H          58.2929   85.7858    7.6714 H       1  UNL1        0.1191
     20 H          58.1385   87.2073    6.8172 H       1  UNL1        0.1191
     21 C          63.4881   86.4342   12.4332 C.3     1  UNL1        0.0889
     22 C          63.0949   85.0586   12.8842 C.3     1  UNL1        0.0748
     23 C          63.2646   83.8893   11.9602 C.3     1  UNL1        0.0432
     24 C          62.8714   82.5137   12.4112 C.ar    1  UNL1       -0.0234
     25 C          63.0411   81.3444   11.4872 C.ar    1  UNL1       -0.0045
     26 C          62.6479   79.9689   11.9382 C.ar    1  UNL1       -0.0003
     27 C          62.0850   79.7628   13.3132 C.ar    1  UNL1       -0.0003
     28 C          61.9154   80.9321   14.2372 C.ar    1  UNL1       -0.0032
     29 C          62.3085   82.3076   13.7862 C.ar    1  UNL1       -0.0103
     30 C          62.1389   83.4770   14.7102 C.3     1  UNL1        0.0953
     31 N          62.5320   84.8525   14.2592 N.3     1  UNL1       -0.2934
     32 H          63.2341   85.1890   14.9182 H       1  UNL1        0.1236
@<TRIPOS>BOND
     1    13    14    1
     2    14    17    1
     3    17    18    1
     4    14    15    2
     5    15    16    1
     6    15    12    1
     7    12     1    1
     8     1    21    1
     9    22    21    1
    10    22    23    1
    11    23    24    1
    12    24    25   ar
    13    25    26   ar
    14    26    27   ar
    15    27    28   ar
    16    28    29   ar
    17    29    30    1
    18    30    31    1
    19     2     1    1
    20     2     3    1
    21     3     4    1
    22     4     5    1
    23     5     6    1
    24     6     7   ar
    25     7     8   ar
    26     8     9   ar
    27     9    10   ar
    28    10    11   ar
    29    31    22    1
    30    11     2    1
    31    29    24   ar
    32    11     6   ar
    33    18    19    1
    34    18    20    1
    35    31    32    1
@<TRIPOS>MOLECULE
*****
 32 35 0 0 0
SMALL
GASTEIGER

@<TRIPOS>ATOM
      1 N          62.2919   87.3398   11.7222 N.3     1  UNL1       -0.2622
      2 C          62.7419   88.7497   11.4780 C.3     1  UNL1        0.0981
      3 C          62.5103   89.3901   10.1416 C.3     1  UNL1        0.0224
      4 C          62.9602   90.8000    9.8974 C.3     1  UNL1        0.0065
      5 C          63.6418   91.5695   10.9897 C.3     1  UNL1        0.0277
      6 C          63.8735   90.9292   12.3262 C.ar    1  UNL1       -0.0073
      7 C          64.5551   91.6987   13.4185 C.ar    1  UNL1       -0.0015
      8 C          64.7867   91.0584   14.7550 C.ar    1  UNL1        0.0203
      9 C          64.3367   89.6484   14.9992 C.ar    1  UNL1        0.0985
     10 N          63.6551   88.8789   13.9069 N.ar    1  UNL1       -0.2471
     11 C          63.4235   89.5193   12.5703 C.ar    1  UNL1        0.0695
     12 C          60.9847   86.8622   11.1628 C.3     1  UNL1        0.1292
     13 C          60.8225   86.1163    8.2615 C.3     1  UNL1        0.0298
     14 C          60.1357   87.3543    8.7571 C.2     1  UNL1       -0.0038
     15 C          60.2167   87.7272   10.2078 C.2     1  UNL1        0.1272
     16 F          59.5299   88.9651   10.7035 F       1  UNL1       -0.2080
     17 C          59.3677   88.2193    7.8022 C.3     1  UNL1        0.0899
     18 N          59.8456   89.6081    7.4978 N.3     1  UNL1       -0.3177
     19 H          59.7802   90.1821    8.3384 H       1  UNL1        0.1191
     20 H          59.2659   90.0138    6.7631 H       1  UNL1        0.1191
     21 C          63.1491   86.4075   12.5259 C.3     1  UNL1        0.0889
     22 C          63.0872   84.9295   12.2772 C.3     1  UNL1        0.0748
     23 C          62.6045   84.0068   13.3568 C.3     1  UNL1        0.0432
     24 C          62.5426   82.5288   13.1081 C.ar    1  UNL1       -0.0234
     25 C          62.0599   81.6062   14.1877 C.ar    1  UNL1       -0.0045
     26 C          61.9981   80.1282   13.9390 C.ar    1  UNL1       -0.0003
     27 C          62.4189   79.5730   12.6106 C.ar    1  UNL1       -0.0003
     28 C          62.9016   80.4957   11.5310 C.ar    1  UNL1       -0.0032
     29 C          62.9635   81.9736   11.7797 C.ar    1  UNL1       -0.0103
     30 C          63.4462   82.8963   10.7000 C.3     1  UNL1        0.0953
     31 N          63.5081   84.3742   10.9488 N.3     1  UNL1       -0.2934
     32 H          62.9175   84.8163   10.2444 H       1  UNL1        0.1236
@<TRIPOS>BOND
     1    13    14    1
     2    14    17    1
     3    17    18    1
     4    14    15    2
     5    15    16    1
     6    15    12    1
     7    12     1    1
     8     1    21    1
     9    22    21    1
    10    22    23    1
    11    23    24    1
    12    24    25   ar
    13    25    26   ar
    14    26    27   ar
    15    27    28   ar
    16    28    29   ar
    17    29    30    1
    18    30    31    1
    19     2     1    1
    20     2     3    1
    21     3     4    1
    22     4     5    1
    23     5     6    1
    24     6     7   ar
    25     7     8   ar
    26     8     9   ar
    27     9    10   ar
    28    10    11   ar
    29    31    22    1
    30    11     2    1
    31    29    24   ar
    32    11     6   ar
    33    18    19    1
    34    18    20    1
    35    31    32    1
@<TRIPOS>MOLECULE
*****
 32 35 0 0 0
SMALL
GASTEIGER

@<TRIPOS>ATOM
      1 N          62.4424   87.2212   11.7286 N.3     1  UNL1       -0.2622
      2 C          63.2146   86.4195   12.7341 C.3     1  UNL1        0.0981
      3 C          63.9309   87.1122   13.8552 C.3     1  UNL1        0.0224
      4 C          64.7031   86.3105   14.8606 C.3     1  UNL1        0.0065
      5 C          64.7589   84.8160   14.7450 C.3     1  UNL1        0.0277
      6 C          64.0426   84.1233   13.6239 C.ar    1  UNL1       -0.0073
      7 C          64.0984   82.6288   13.5082 C.ar    1  UNL1       -0.0015
      8 C          63.3821   81.9360   12.3871 C.ar    1  UNL1        0.0203
      9 C          62.6099   82.7377   11.3817 C.ar    1  UNL1        0.0985
     10 N          62.5541   84.2322   11.4973 N.ar    1  UNL1       -0.2471
     11 C          63.2704   84.9250   12.6184 C.ar    1  UNL1        0.0695
     12 C          62.1360   86.6389   10.3807 C.3     1  UNL1        0.1292
     13 C          61.5636   85.5774    7.6337 C.3     1  UNL1        0.0298
     14 C          60.5027   86.3263    8.3845 C.2     1  UNL1       -0.0038
     15 C          60.7889   86.8570    9.7580 C.2     1  UNL1        0.1272
     16 F          59.7280   87.6059   10.5088 F       1  UNL1       -0.2080
     17 C          59.1556   86.5444    7.7618 C.3     1  UNL1        0.0899
     18 N          58.7181   87.9293    7.3868 N.3     1  UNL1       -0.3177
     19 H          58.6091   88.4917    8.2308 H       1  UNL1        0.1191
     20 H          57.8272   87.8822    6.8923 H       1  UNL1        0.1191
     21 C          61.9767   88.6053   12.0710 C.3     1  UNL1        0.0889
     22 C          62.8350   89.7895   11.7377 C.3     1  UNL1        0.0748
     23 C          63.7456   90.3722   12.7775 C.3     1  UNL1        0.0432
     24 C          64.6039   91.5564   12.4441 C.ar    1  UNL1       -0.0234
     25 C          65.5144   92.1392   13.4839 C.ar    1  UNL1       -0.0045
     26 C          66.3727   93.3233   13.1505 C.ar    1  UNL1       -0.0003
     27 C          66.3205   93.9246   11.7773 C.ar    1  UNL1       -0.0003
     28 C          65.4100   93.3418   10.7375 C.ar    1  UNL1       -0.0032
     29 C          64.5517   92.1577   11.0709 C.ar    1  UNL1       -0.0103
     30 C          63.6411   91.5749   10.0311 C.3     1  UNL1        0.0953
     31 N          62.7828   90.3908   10.3644 N.3     1  UNL1       -0.2934
     32 H          63.0346   89.6508    9.7092 H       1  UNL1        0.1236
@<TRIPOS>BOND
     1    13    14    1
     2    14    17    1
     3    17    18    1
     4    14    15    2
     5    15    16    1
     6    15    12    1
     7    12     1    1
     8     1    21    1
     9    22    21    1
    10    22    23    1
    11    23    24    1
    12    24    25   ar
    13    25    26   ar
    14    26    27   ar
    15    27    28   ar
    16    28    29   ar
    17    29    30    1
    18    30    31    1
    19     2     1    1
    20     2     3    1
    21     3     4    1
    22     4     5    1
    23     5     6    1
    24     6     7   ar
    25     7     8   ar
    26     8     9   ar
    27     9    10   ar
    28    10    11   ar
    29    31    22    1
    30    11     2    1
    31    29    24   ar
    32    11     6   ar
    33    18    19    1
    34    18    20    1
    35    31    32    1
@<TRIPOS>MOLECULE
*****
 32 35 0 0 0
SMALL
GASTEIGER

@<TRIPOS>ATOM
      1 N          62.3503   88.0877   11.9000 N.3     1  UNL1       -0.2622
      2 C          63.2530   88.9629   12.7179 C.3     1  UNL1        0.0981
      3 C          63.6143   88.5665   14.1187 C.3     1  UNL1        0.0224
      4 C          64.5171   89.4417   14.9367 C.3     1  UNL1        0.0065
      5 C          65.0586   90.7133   14.3538 C.3     1  UNL1        0.0277
      6 C          64.6973   91.1097   12.9530 C.ar    1  UNL1       -0.0073
      7 C          65.2388   92.3814   12.3701 C.ar    1  UNL1       -0.0015
      8 C          64.8775   92.7778   10.9693 C.ar    1  UNL1        0.0203
      9 C          63.9747   91.9026   10.1513 C.ar    1  UNL1        0.0985
     10 N          63.4332   90.6310   10.7342 N.ar    1  UNL1       -0.2471
     11 C          63.7945   90.2345   12.1351 C.ar    1  UNL1        0.0695
     12 C          60.9108   88.4644   11.7102 C.3     1  UNL1        0.1292
     13 C          60.2003   86.8473    9.2853 C.3     1  UNL1        0.0298
     14 C          60.1202   88.3444    9.2382 C.2     1  UNL1       -0.0038
     15 C          60.4755   89.1530   10.4507 C.2     1  UNL1        0.1272
     16 F          60.3955   90.6501   10.4037 F       1  UNL1       -0.2080
     17 C          59.6850   89.0330    7.9787 C.3     1  UNL1        0.0899
     18 N          58.9246   88.2730    6.9327 N.3     1  UNL1       -0.3177
     19 H          59.5244   87.5508    6.5339 H       1  UNL1        0.1191
     20 H          58.6272   88.9130    6.1963 H       1  UNL1        0.1191
     21 C          62.8869   86.8358   11.2718 C.3     1  UNL1        0.0889
     22 C          62.7874   85.5286   12.0010 C.3     1  UNL1        0.0748
     23 C          62.8955   84.2378   11.2446 C.3     1  UNL1        0.0432
     24 C          62.7960   82.9307   11.9738 C.ar    1  UNL1       -0.0234
     25 C          62.9040   81.6399   11.2174 C.ar    1  UNL1       -0.0045
     26 C          62.8045   80.3328   11.9465 C.ar    1  UNL1       -0.0003
     27 C          62.5970   80.3166   13.4320 C.ar    1  UNL1       -0.0003
     28 C          62.4890   81.6074   14.1884 C.ar    1  UNL1       -0.0032
     29 C          62.5885   82.9144   13.4592 C.ar    1  UNL1       -0.0103
     30 C          62.4804   84.2053   14.2156 C.3     1  UNL1        0.0953
     31 N          62.5799   85.5124   13.4865 N.3     1  UNL1       -0.2934
     32 H          63.3623   86.0207   13.8986 H       1  UNL1        0.1236
@<TRIPOS>BOND
     1    13    14    1
     2    14    17    1
     3    17    18    1
     4    14    15    2
     5    15    16    1
     6    15    12    1
     7    12     1    1
     8     1    21    1
     9    22    21    1
    10    22    23    1
    11    23    24    1
    12    24    25   ar
    13    25    26   ar
    14    26    27   ar
    15    27    28   ar
    16    28    29   ar
    17    29    30    1
    18    30    31    1
    19     2     1    1
    20     2     3    1
    21     3     4    1
    22     4     5    1
    23     5     6    1
    24     6     7   ar
    25     7     8   ar
    26     8     9   ar
    27     9    10   ar
    28    10    11   ar
    29    31    22    1
    30    11     2    1
    31    29    24   ar
    32    11     6   ar
    33    18    19    1
    34    18    20    1
    35    31    32    1
@<TRIPOS>MOLECULE
*****
 32 35 0 0 0
SMALL
GASTEIGER

@<TRIPOS>ATOM
      1 N          62.4310   86.4141   10.7872 N.3     1  UNL1       -0.2622
      2 C          62.9644   85.0236   10.9660 C.3     1  UNL1        0.0981
      3 C          63.5288   84.2800    9.7919 C.3     1  UNL1        0.0224
      4 C          64.0623   82.8896    9.9707 C.3     1  UNL1        0.0065
      5 C          64.0314   82.2426   11.3236 C.3     1  UNL1        0.0277
      6 C          63.4670   82.9862   12.4977 C.ar    1  UNL1       -0.0073
      7 C          63.4361   82.3392   13.8508 C.ar    1  UNL1       -0.0015
      8 C          62.8717   83.0828   15.0249 C.ar    1  UNL1        0.0203
      9 C          62.3383   84.4733   14.8460 C.ar    1  UNL1        0.0985
     10 N          62.3692   85.1202   13.4931 N.ar    1  UNL1       -0.2471
     11 C          62.9335   84.3766   12.3189 C.ar    1  UNL1        0.0695
     12 C          62.2897   86.9918    9.4102 C.3     1  UNL1        0.1292
     13 C          60.4155   85.6828    7.4675 C.3     1  UNL1        0.0298
     14 C          60.0813   87.0275    8.0419 C.2     1  UNL1       -0.0038
     15 C          61.0184   87.6821    9.0133 C.2     1  UNL1        0.1272
     16 F          60.6843   89.0268    9.5877 F       1  UNL1       -0.2080
     17 C          58.8101   87.7177    7.6450 C.3     1  UNL1        0.0899
     18 N          58.8513   88.8756    6.6923 N.3     1  UNL1       -0.3177
     19 H          59.3409   89.6571    7.1281 H       1  UNL1        0.1191
     20 H          57.8993   89.1582    6.4594 H       1  UNL1        0.1191
     21 C          62.0389   87.2268   11.9853 C.3     1  UNL1        0.0889
     22 C          62.9538   88.3005   12.4954 C.3     1  UNL1        0.0748
     23 C          63.1912   89.5348   11.6769 C.3     1  UNL1        0.0432
     24 C          64.1062   90.6085   12.1870 C.ar    1  UNL1       -0.0234
     25 C          64.3436   91.8428   11.3684 C.ar    1  UNL1       -0.0045
     26 C          65.2585   92.9165   11.8785 C.ar    1  UNL1       -0.0003
     27 C          65.9360   92.7558   13.2072 C.ar    1  UNL1       -0.0003
     28 C          65.6985   91.5215   14.0257 C.ar    1  UNL1       -0.0032
     29 C          64.7836   90.4478   13.5156 C.ar    1  UNL1       -0.0103
     30 C          64.5461   89.2135   14.3342 C.3     1  UNL1        0.0953
     31 N          63.6312   88.1398   13.8241 N.3     1  UNL1       -0.2934
     32 H          62.8933   88.0271   14.5191 H       1  UNL1        0.1236
@<TRIPOS>BOND
     1    13    14    1
     2    14    17    1
     3    17    18    1
     4    14    15    2
     5    15    16    1
     6    15    12    1
     7    12     1    1
     8     1    21    1
     9    22    21    1
    10    22    23    1
    11    23    24    1
    12    24    25   ar
    13    25    26   ar
    14    26    27   ar
    15    27    28   ar
    16    28    29   ar
    17    29    30    1
    18    30    31    1
    19     2     1    1
    20     2     3    1
    21     3     4    1
    22     4     5    1
    23     5     6    1
    24     6     7   ar
    25     7     8   ar
    26     8     9   ar
    27     9    10   ar
    28    10    11   ar
    29    31    22    1
    30    11     2    1
    31    29    24   ar
    32    11     6   ar
    33    18    19    1
    34    18    20    1
    35    31    32    1
@<TRIPOS>MOLECULE
*****
 32 35 0 0 0
SMALL
GASTEIGER

@<TRIPOS>ATOM
      1 N          62.3795   87.3090   11.2157 N.3     1  UNL1       -0.2622
      2 C          62.6875   85.9175   11.6835 C.3     1  UNL1        0.0981
      3 C          62.3227   84.7407   10.8280 C.3     1  UNL1        0.0224
      4 C          62.6307   83.3492   11.2958 C.3     1  UNL1        0.0065
      5 C          63.3036   83.1345   12.6191 C.3     1  UNL1        0.0277
      6 C          63.6684   84.3113   13.4746 C.ar    1  UNL1       -0.0073
      7 C          64.3412   84.0967   14.7980 C.ar    1  UNL1       -0.0015
      8 C          64.7060   85.2735   15.6535 C.ar    1  UNL1        0.0203
      9 C          64.3980   86.6650   15.1857 C.ar    1  UNL1        0.0985
     10 N          63.7252   86.8797   13.8624 N.ar    1  UNL1       -0.2471
     11 C          63.3603   85.7028   13.0068 C.ar    1  UNL1        0.0695
     12 C          62.2370   87.5932    9.7498 C.3     1  UNL1        0.1292
     13 C          60.8099   85.9090    7.7183 C.3     1  UNL1        0.0298
     14 C          60.2030   87.2000    8.1819 C.2     1  UNL1       -0.0038
     15 C          60.9165   88.0421    9.1977 C.2     1  UNL1        0.1272
     16 F          60.3096   89.3330    9.6614 F       1  UNL1       -0.2080
     17 C          58.8825   87.6489    7.6298 C.3     1  UNL1        0.0899
     18 N          58.8196   88.8204    6.6953 N.3     1  UNL1       -0.3177
     19 H          59.0933   89.6676    7.1931 H       1  UNL1        0.1191
     20 H          57.8675   88.9248    6.3445 H       1  UNL1        0.1191
     21 C          62.2139   88.4164   12.2139 C.3     1  UNL1        0.0889
     22 C          63.0819   89.6369   12.1308 C.3     1  UNL1        0.0748
     23 C          63.8905   90.0645   13.3197 C.3     1  UNL1        0.0432
     24 C          64.7585   91.2851   13.2367 C.ar    1  UNL1       -0.0234
     25 C          65.5670   91.7126   14.4255 C.ar    1  UNL1       -0.0045
     26 C          66.4350   92.9331   14.3425 C.ar    1  UNL1       -0.0003
     27 C          66.4945   93.7260   13.0706 C.ar    1  UNL1       -0.0003
     28 C          65.6860   93.2985   11.8817 C.ar    1  UNL1       -0.0032
     29 C          64.8180   92.0780   11.9648 C.ar    1  UNL1       -0.0103
     30 C          64.0094   91.6503   10.7759 C.3     1  UNL1        0.0953
     31 N          63.1414   90.4299   10.8589 N.3     1  UNL1       -0.2934
     32 H          63.4593   89.7922   10.1290 H       1  UNL1        0.1236
@<TRIPOS>BOND
     1    13    14    1
     2    14    17    1
     3    17    18    1
     4    14    15    2
     5    15    16    1
     6    15    12    1
     7    12     1    1
     8     1    21    1
     9    22    21    1
    10    22    23    1
    11    23    24    1
    12    24    25   ar
    13    25    26   ar
    14    26    27   ar
    15    27    28   ar
    16    28    29   ar
    17    29    30    1
    18    30    31    1
    19     2     1    1
    20     2     3    1
    21     3     4    1
    22     4     5    1
    23     5     6    1
    24     6     7   ar
    25     7     8   ar
    26     8     9   ar
    27     9    10   ar
    28    10    11   ar
    29    31    22    1
    30    11     2    1
    31    29    24   ar
    32    11     6   ar
    33    18    19    1
    34    18    20    1
    35    31    32    1
