@<TRIPOS>MOLECULE
*****
 51 54 0 0 0
SMALL
GASTEIGER

@<TRIPOS>ATOM
      1 N          63.2861   85.8830   13.3863 N.am    1  UNL1       -0.2997
      2 C          62.4934   85.9371   12.1140 C.2     1  UNL1        0.2459
      3 O          61.8902   84.6839   11.5523 O.2     1  UNL1       -0.2701
      4 H          63.6820   86.7056   13.7550 H       1  UNL1        0.1498
      5 C          62.3040   87.2444   11.4034 C.ar    1  UNL1        0.0548
      6 C          63.0453   88.4637   11.8657 C.ar    1  UNL1        0.0091
      7 C          62.8558   89.7710   11.1551 C.ar    1  UNL1        0.0548
      8 C          61.9251   89.8591    9.9822 C.ar    1  UNL1        0.0206
      9 C          61.1837   88.6398    9.5197 C.ar    1  UNL1        0.0688
     10 C          61.3731   87.3325   10.2304 C.ar    1  UNL1        0.0206
     11 C          63.5971   90.9903   11.6175 C.2     1  UNL1        0.2461
     12 O          63.2012   91.6692   12.8951 O.2     1  UNL1       -0.2701
     13 N          64.7344   91.5307   10.8022 N.am    1  UNL1       -0.2987
     14 H          64.9942   91.0852    9.9636 H       1  UNL1        0.1500
     15 C          65.4757   92.7500   11.2645 C.3     1  UNL1        0.0944
     16 C          65.2912   94.0559   10.5498 C.3     1  UNL1        0.0262
     17 C          66.4015   92.6635   12.4416 C.ar    1  UNL1       -0.0045
     18 C          67.5882   91.7470   12.3966 C.ar    1  UNL1       -0.0027
     19 C          68.5140   91.6604   13.5736 C.ar    1  UNL1       -0.0003
     20 C          68.2531   92.4904   14.7956 C.ar    1  UNL1       -0.0000
     21 C          67.0665   93.4068   14.8405 C.ar    1  UNL1       -0.0003
     22 C          66.1407   93.4933   13.6635 C.ar    1  UNL1       -0.0027
     23 N          60.2529   88.7279    8.3468 N.pl3   1  UNL1       -0.1925
     24 C          59.9352   90.0624    7.7400 C.3     1  UNL1        0.1388
     25 S          59.6400   87.4815    7.7806 S.O2    1  UNL1        0.0588
     26 C          59.0269   86.2350    7.2143 C.3     1  UNL1        0.1999
     27 O          60.9815   86.8109    7.8045 O.2     1  UNL1       -0.1542
     28 O          58.2985   88.1521    7.7566 O.2     1  UNL1       -0.1542
     29 C          63.4755   84.5757   14.0970 C.3     1  UNL1        0.1043
     30 C          62.6833   84.2729   15.3342 C.3     1  UNL1        0.1443
     31 O          63.0725   83.1192   16.2103 O.3     1  UNL1       -0.3813
     32 H          63.8511   82.6777   15.8366 H       1  UNL1        0.2105
     33 C          61.5019   85.1237   15.6952 C.3     1  UNL1        0.1001
     34 N          61.5591   86.0134   16.9015 N.3     1  UNL1       -0.2917
     35 H          60.9047   86.7778   16.7348 H       1  UNL1        0.1236
     36 C          62.8597   86.6384   17.3114 C.3     1  UNL1        0.0958
     37 C          63.6167   90.3834   16.2380 C.ar    1  UNL1        0.1385
     38 C          64.4797   90.1634   15.0311 C.ar    1  UNL1        0.0369
     39 C          64.8027   88.7684   14.5842 C.ar    1  UNL1        0.0028
     40 C          64.2627   87.5934   15.3443 C.ar    1  UNL1       -0.0027
     41 C          63.3997   87.8134   16.5513 C.ar    1  UNL1       -0.0034
     42 C          63.0766   89.2084   16.9982 C.ar    1  UNL1        0.0340
     43 C          64.3969   92.7110   17.0885 C.3     1  UNL1        0.2525
     44 O          63.2937   91.7784   16.6849 O.3     1  UNL1       -0.4714
     45 C          64.4572   83.5712   13.5704 C.3     1  UNL1        0.0484
     46 C          64.0206   82.5566   12.5555 C.ar    1  UNL1       -0.0204
     47 C          64.3793   82.7389   11.1105 C.ar    1  UNL1       -0.0042
     48 C          63.9427   81.7243   10.0956 C.ar    1  UNL1       -0.0003
     49 C          63.1473   80.5275   10.5257 C.ar    1  UNL1       -0.0000
     50 C          62.7885   80.3452   11.9707 C.ar    1  UNL1       -0.0003
     51 C          63.2252   81.3598   12.9857 C.ar    1  UNL1       -0.0042
@<TRIPOS>BOND
     1    43    44    1
     2    44    37    1
     3    37    38   ar
     4    38    39   ar
     5    39    40   ar
     6    40    41   ar
     7    41    36    1
     8    36    34    1
     9    34    33    1
    10    33    30    1
    11    30    31    1
    12    30    29    1
    13    29    45    1
    14    45    46    1
    15    46    47   ar
    16    47    48   ar
    17    48    49   ar
    18    49    50   ar
    19    50    51   ar
    20    29     1    1
    21     1     2   am
    22     2     3    2
    23     2     5    1
    24     5     6   ar
    25     6     7   ar
    26     7    11    1
    27    11    12    2
    28    11    13   am
    29    13    15    1
    30    15    16    1
    31    15    17    1
    32    17    18   ar
    33    18    19   ar
    34    19    20   ar
    35    20    21   ar
    36    21    22   ar
    37     7     8   ar
    38     8     9   ar
    39     9    23    1
    40    23    24    1
    41    23    25    1
    42    25    26    1
    43    25    27    2
    44    25    28    2
    45     9    10   ar
    46    41    42   ar
    47    42    37   ar
    48    51    46   ar
    49    10     5   ar
    50    22    17   ar
    51    34    35    1
    52    31    32    1
    53     1     4    1
    54    13    14    1
@<TRIPOS>MOLECULE
*****
 51 54 0 0 0
SMALL
GASTEIGER

@<TRIPOS>ATOM
      1 N          60.8811   88.1089   10.4349 N.am    1  UNL1       -0.2997
      2 C          62.0471   89.0217   10.6748 C.2     1  UNL1        0.2459
      3 O          62.4021   90.0674    9.6598 O.2     1  UNL1       -0.2701
      4 H          60.6481   87.4225   11.1012 H       1  UNL1        0.1498
      5 C          62.8579   88.8886   11.9297 C.ar    1  UNL1        0.0548
      6 C          63.0820   87.5360   12.5380 C.ar    1  UNL1        0.0091
      7 C          63.8928   87.4030   13.7930 C.ar    1  UNL1        0.0548
      8 C          64.4796   88.6226   14.4396 C.ar    1  UNL1        0.0206
      9 C          64.2556   89.9753   13.8313 C.ar    1  UNL1        0.0688
     10 C          63.4447   90.1084   12.5764 C.ar    1  UNL1        0.0206
     11 C          64.1169   86.0503   14.4013 C.2     1  UNL1        0.2461
     12 O          65.4247   85.7333   15.0639 O.2     1  UNL1       -0.2701
     13 N          63.0331   85.0147   14.3470 N.am    1  UNL1       -0.2987
     14 H          62.1748   85.2227   13.9121 H       1  UNL1        0.1500
     15 C          63.2572   83.6620   14.9553 C.3     1  UNL1        0.0944
     16 C          63.7396   83.5468   16.3710 C.3     1  UNL1        0.0262
     17 C          62.9989   82.4245   14.1480 C.ar    1  UNL1       -0.0045
     18 C          61.8507   81.5255   14.4998 C.ar    1  UNL1       -0.0027
     19 C          61.5924   80.2880   13.6925 C.ar    1  UNL1       -0.0003
     20 C          62.4822   79.9494   12.5334 C.ar    1  UNL1       -0.0000
     21 C          63.6303   80.8483   12.1816 C.ar    1  UNL1       -0.0003
     22 C          63.8886   82.0858   12.9889 C.ar    1  UNL1       -0.0027
     23 N          64.8423   91.1950   14.4779 N.pl3   1  UNL1       -0.1925
     24 C          64.2818   91.6997   15.7745 C.3     1  UNL1        0.1388
     25 S          65.9896   91.9099   13.8279 S.O2    1  UNL1        0.0588
     26 C          67.1370   92.6249   13.1779 C.3     1  UNL1        0.1999
     27 O          66.9508   91.1687   14.7092 O.2     1  UNL1       -0.1542
     28 O          65.0285   92.6512   12.9467 O.2     1  UNL1       -0.1542
     29 C          60.0703   88.2419    9.1800 C.3     1  UNL1        0.1043
     30 C          59.6142   89.5955    8.7217 C.3     1  UNL1        0.1443
     31 O          59.7235   90.7750    9.6419 O.3     1  UNL1       -0.3813
     32 H          60.1065   90.4916   10.4868 H       1  UNL1        0.2105
     33 C          59.0490   89.7695    7.3432 C.3     1  UNL1        0.1001
     34 N          59.9346   90.2247    6.2215 N.3     1  UNL1       -0.2917
     35 H          60.7576   90.6488    6.6496 H       1  UNL1        0.1236
     36 C          59.4193   91.2048    5.2095 C.3     1  UNL1        0.0958
     37 C          60.7763   93.3692    2.1724 C.ar    1  UNL1        0.1385
     38 C          62.1900   92.8760    2.0821 C.ar    1  UNL1        0.0369
     39 C          62.6801   91.8257    3.0342 C.ar    1  UNL1        0.0028
     40 C          61.7566   91.2686    4.0767 C.ar    1  UNL1       -0.0027
     41 C          60.3429   91.7618    4.1670 C.ar    1  UNL1       -0.0034
     42 C          59.8527   92.8121    3.2149 C.ar    1  UNL1        0.0340
     43 C          59.1434   94.1195    0.2960 C.3     1  UNL1        0.2525
     44 O          60.2861   94.4195    1.2202 O.3     1  UNL1       -0.4714
     45 C          59.7155   87.0215    8.3834 C.3     1  UNL1        0.0484
     46 C          60.7985   86.1174    7.8739 C.ar    1  UNL1       -0.0204
     47 C          60.5863   85.3273    6.6167 C.ar    1  UNL1       -0.0042
     48 C          61.6693   84.4233    6.1072 C.ar    1  UNL1       -0.0003
     49 C          62.9647   84.3093    6.8549 C.ar    1  UNL1       -0.0000
     50 C          63.1769   85.0993    8.1121 C.ar    1  UNL1       -0.0003
     51 C          62.0938   86.0035    8.6217 C.ar    1  UNL1       -0.0042
@<TRIPOS>BOND
     1    43    44    1
     2    44    37    1
     3    37    38   ar
     4    38    39   ar
     5    39    40   ar
     6    40    41   ar
     7    41    36    1
     8    36    34    1
     9    34    33    1
    10    33    30    1
    11    30    31    1
    12    30    29    1
    13    29    45    1
    14    45    46    1
    15    46    47   ar
    16    47    48   ar
    17    48    49   ar
    18    49    50   ar
    19    50    51   ar
    20    29     1    1
    21     1     2   am
    22     2     3    2
    23     2     5    1
    24     5     6   ar
    25     6     7   ar
    26     7    11    1
    27    11    12    2
    28    11    13   am
    29    13    15    1
    30    15    16    1
    31    15    17    1
    32    17    18   ar
    33    18    19   ar
    34    19    20   ar
    35    20    21   ar
    36    21    22   ar
    37     7     8   ar
    38     8     9   ar
    39     9    23    1
    40    23    24    1
    41    23    25    1
    42    25    26    1
    43    25    27    2
    44    25    28    2
    45     9    10   ar
    46    41    42   ar
    47    42    37   ar
    48    51    46   ar
    49    10     5   ar
    50    22    17   ar
    51    34    35    1
    52    31    32    1
    53     1     4    1
    54    13    14    1
@<TRIPOS>MOLECULE
*****
 51 54 0 0 0
SMALL
GASTEIGER

@<TRIPOS>ATOM
      1 N          63.3321   85.7034   13.3589 N.am    1  UNL1       -0.2997
      2 C          62.5407   85.7893   12.0875 C.2     1  UNL1        0.2459
      3 O          61.9582   84.5470   11.4813 O.2     1  UNL1       -0.2701
      4 H          63.7144   86.5188   13.7568 H       1  UNL1        0.1498
      5 C          62.3317   87.1174   11.4224 C.ar    1  UNL1        0.0548
      6 C          63.0547   88.3309   11.9271 C.ar    1  UNL1        0.0091
      7 C          62.8457   89.6591   11.2620 C.ar    1  UNL1        0.0548
      8 C          61.9139   89.7737   10.0922 C.ar    1  UNL1        0.0206
      9 C          61.1909   88.5602    9.5874 C.ar    1  UNL1        0.0688
     10 C          61.3998   87.2320   10.2525 C.ar    1  UNL1        0.0206
     11 C          63.5687   90.8726   11.7666 C.2     1  UNL1        0.2461
     12 O          63.0059   91.6576   12.9142 O.2     1  UNL1       -0.2701
     13 N          64.8544   91.3011   11.1237 N.am    1  UNL1       -0.2987
     14 H          65.2238   90.7859   10.3705 H       1  UNL1        0.1500
     15 C          65.5773   92.5146   11.6284 C.3     1  UNL1        0.0944
     16 C          65.7137   92.7467   13.1041 C.3     1  UNL1        0.0262
     17 C          66.1639   93.4961   10.6574 C.ar    1  UNL1       -0.0045
     18 C          65.6200   94.8920   10.5812 C.ar    1  UNL1       -0.0027
     19 C          66.2065   95.8734    9.6102 C.ar    1  UNL1       -0.0003
     20 C          67.3370   95.4589    8.7155 C.ar    1  UNL1       -0.0000
     21 C          67.8808   94.0631    8.7918 C.ar    1  UNL1       -0.0003
     22 C          67.2942   93.0817    9.7627 C.ar    1  UNL1       -0.0027
     23 N          60.2590   88.6748    8.4177 N.pl3   1  UNL1       -0.1925
     24 C          59.9521   90.0214    7.8324 C.3     1  UNL1        0.1388
     25 S          59.6341   87.4429    7.8331 S.O2    1  UNL1        0.0588
     26 C          59.0091   86.2109    7.2485 C.3     1  UNL1        0.1999
     27 O          60.9767   86.7745    7.8064 O.2     1  UNL1       -0.1542
     28 O          58.2916   88.1112    7.8598 O.2     1  UNL1       -0.1542
     29 C          63.5411   84.3753   14.0240 C.3     1  UNL1        0.1043
     30 C          62.7789   84.0321   15.2696 C.3     1  UNL1        0.1443
     31 O          62.7788   82.6233   15.7846 O.3     1  UNL1       -0.3813
     32 H          63.3153   82.0653   15.2000 H       1  UNL1        0.2105
     33 C          62.0169   85.0978   16.0001 C.3     1  UNL1        0.1001
     34 N          62.5067   85.5929   17.3286 N.3     1  UNL1       -0.2917
     35 H          61.9528   85.1188   18.0420 H       1  UNL1        0.1236
     36 C          62.4597   87.0580   17.6468 C.3     1  UNL1        0.0958
     37 C          63.7721   90.4939   16.1560 C.ar    1  UNL1        0.1385
     38 C          64.5729   90.0073   14.9848 C.ar    1  UNL1        0.0369
     39 C          64.6692   88.5376   14.7008 C.ar    1  UNL1        0.0028
     40 C          63.9649   87.5545   15.5881 C.ar    1  UNL1       -0.0027
     41 C          63.1641   88.0411   16.7595 C.ar    1  UNL1       -0.0034
     42 C          63.0677   89.5108   17.0434 C.ar    1  UNL1        0.0340
     43 C          64.9075   92.7403   16.8002 C.3     1  UNL1        0.2525
     44 O          63.6758   91.9637   16.4400 O.3     1  UNL1       -0.4714
     45 C          64.5121   83.3903   13.4436 C.3     1  UNL1        0.0484
     46 C          64.0555   82.4115   12.4027 C.ar    1  UNL1       -0.0204
     47 C          63.2655   81.2018   12.8059 C.ar    1  UNL1       -0.0042
     48 C          62.8090   80.2230   11.7651 C.ar    1  UNL1       -0.0003
     49 C          63.1424   80.4539   10.3209 C.ar    1  UNL1       -0.0000
     50 C          63.9323   81.6635    9.9177 C.ar    1  UNL1       -0.0003
     51 C          64.3889   82.6424   10.9586 C.ar    1  UNL1       -0.0042
@<TRIPOS>BOND
     1    43    44    1
     2    44    37    1
     3    37    38   ar
     4    38    39   ar
     5    39    40   ar
     6    40    41   ar
     7    41    36    1
     8    36    34    1
     9    34    33    1
    10    33    30    1
    11    30    31    1
    12    30    29    1
    13    29    45    1
    14    45    46    1
    15    46    47   ar
    16    47    48   ar
    17    48    49   ar
    18    49    50   ar
    19    50    51   ar
    20    29     1    1
    21     1     2   am
    22     2     3    2
    23     2     5    1
    24     5     6   ar
    25     6     7   ar
    26     7    11    1
    27    11    12    2
    28    11    13   am
    29    13    15    1
    30    15    16    1
    31    15    17    1
    32    17    18   ar
    33    18    19   ar
    34    19    20   ar
    35    20    21   ar
    36    21    22   ar
    37     7     8   ar
    38     8     9   ar
    39     9    23    1
    40    23    24    1
    41    23    25    1
    42    25    26    1
    43    25    27    2
    44    25    28    2
    45     9    10   ar
    46    41    42   ar
    47    42    37   ar
    48    51    46   ar
    49    10     5   ar
    50    22    17   ar
    51    34    35    1
    52    31    32    1
    53     1     4    1
    54    13    14    1
@<TRIPOS>MOLECULE
*****
 51 54 0 0 0
SMALL
GASTEIGER

@<TRIPOS>ATOM
      1 N          61.7153   88.1829    9.4466 N.am    1  UNL1       -0.2997
      2 C          61.3353   88.4466   10.8736 C.2     1  UNL1        0.2459
      3 O          60.0516   87.8975   11.4217 O.2     1  UNL1       -0.2701
      4 H          62.5578   88.5433    9.0869 H       1  UNL1        0.1498
      5 C          62.2392   89.2596   11.7524 C.ar    1  UNL1        0.0548
      6 C          62.9722   90.4397   11.1869 C.ar    1  UNL1        0.0091
      7 C          63.8760   91.2527   12.0657 C.ar    1  UNL1        0.0548
      8 C          64.0468   90.8854   13.5099 C.ar    1  UNL1        0.0206
      9 C          63.3138   89.7052   14.0755 C.ar    1  UNL1        0.0688
     10 C          62.4099   88.8923   13.1967 C.ar    1  UNL1        0.0206
     11 C          64.6090   92.4329   11.5002 C.2     1  UNL1        0.2461
     12 O          64.4125   92.8203   10.0645 O.2     1  UNL1       -0.2701
     13 N          65.5387   93.2257   12.3705 N.am    1  UNL1       -0.2987
     14 H          65.6677   92.9714   13.3128 H       1  UNL1        0.1500
     15 C          66.2717   94.4059   11.8050 C.3     1  UNL1        0.0944
     16 C          66.3443   95.6866   12.5825 C.3     1  UNL1        0.0262
     17 C          66.9322   94.3054   10.4620 C.ar    1  UNL1       -0.0045
     18 C          66.8071   95.4312    9.4786 C.ar    1  UNL1       -0.0027
     19 C          67.4676   95.3307    8.1356 C.ar    1  UNL1       -0.0003
     20 C          68.2531   94.1044    7.7760 C.ar    1  UNL1       -0.0000
     21 C          68.3782   92.9787    8.7594 C.ar    1  UNL1       -0.0003
     22 C          67.7177   93.0792   10.1024 C.ar    1  UNL1       -0.0027
     23 N          63.4846   89.3380   15.5197 N.pl3   1  UNL1       -0.1925
     24 C          63.5865   90.4137   16.5602 C.3     1  UNL1        0.1388
     25 S          63.5534   87.8950   15.9236 S.O2    1  UNL1        0.0588
     26 C          63.6223   86.4520   16.3275 C.3     1  UNL1        0.1999
     27 O          64.6408   87.6650   14.9163 O.2     1  UNL1       -0.1542
     28 O          62.4660   88.1250   16.9308 O.2     1  UNL1       -0.1542
     29 C          60.8115   87.3699    8.5679 C.3     1  UNL1        0.1043
     30 C          59.6111   88.0071    7.9329 C.3     1  UNL1        0.1443
     31 O          58.3056   87.2697    7.8892 O.3     1  UNL1       -0.3813
     32 H          58.4097   86.4027    8.3115 H       1  UNL1        0.2105
     33 C          59.7162   89.3816    7.3416 C.3     1  UNL1        0.1001
     34 N          59.0045   89.7036    6.0611 N.3     1  UNL1       -0.2917
     35 H          59.4797   89.1858    5.3218 H       1  UNL1        0.1236
     36 C          58.9029   91.1263    5.5967 C.3     1  UNL1        0.0958
     37 C          60.2578   93.1159    2.4413 C.ar    1  UNL1        0.1385
     38 C          61.6853   92.6564    2.4081 C.ar    1  UNL1        0.0369
     39 C          62.1854   91.6869    3.4376 C.ar    1  UNL1        0.0028
     40 C          61.2579   91.1768    4.5005 C.ar    1  UNL1       -0.0027
     41 C          59.8304   91.6363    4.5338 C.ar    1  UNL1       -0.0034
     42 C          59.3303   92.6058    3.5042 C.ar    1  UNL1        0.0340
     43 C          58.9734   93.5897    0.2333 C.3     1  UNL1        0.2525
     44 O          59.7578   94.0854    1.4118 O.3     1  UNL1       -0.4714
     45 C          61.1080   85.9199    8.3241 C.3     1  UNL1        0.0484
     46 C          62.0110   85.1716    9.2592 C.ar    1  UNL1       -0.0204
     47 C          63.1992   84.4303    8.7217 C.ar    1  UNL1       -0.0042
     48 C          64.1022   83.6820    9.6568 C.ar    1  UNL1       -0.0003
     49 C          63.8171   83.6748   11.1294 C.ar    1  UNL1       -0.0000
     50 C          62.6290   84.4160   11.6670 C.ar    1  UNL1       -0.0003
     51 C          61.7259   85.1644   10.7318 C.ar    1  UNL1       -0.0042
@<TRIPOS>BOND
     1    43    44    1
     2    44    37    1
     3    37    38   ar
     4    38    39   ar
     5    39    40   ar
     6    40    41   ar
     7    41    36    1
     8    36    34    1
     9    34    33    1
    10    33    30    1
    11    30    31    1
    12    30    29    1
    13    29    45    1
    14    45    46    1
    15    46    47   ar
    16    47    48   ar
    17    48    49   ar
    18    49    50   ar
    19    50    51   ar
    20    29     1    1
    21     1     2   am
    22     2     3    2
    23     2     5    1
    24     5     6   ar
    25     6     7   ar
    26     7    11    1
    27    11    12    2
    28    11    13   am
    29    13    15    1
    30    15    16    1
    31    15    17    1
    32    17    18   ar
    33    18    19   ar
    34    19    20   ar
    35    20    21   ar
    36    21    22   ar
    37     7     8   ar
    38     8     9   ar
    39     9    23    1
    40    23    24    1
    41    23    25    1
    42    25    26    1
    43    25    27    2
    44    25    28    2
    45     9    10   ar
    46    41    42   ar
    47    42    37   ar
    48    51    46   ar
    49    10     5   ar
    50    22    17   ar
    51    34    35    1
    52    31    32    1
    53     1     4    1
    54    13    14    1
@<TRIPOS>MOLECULE
*****
 51 54 0 0 0
SMALL
GASTEIGER

@<TRIPOS>ATOM
      1 N          61.6146   88.3505   10.0160 N.am    1  UNL1       -0.2997
      2 C          61.3328   88.7305   11.4395 C.2     1  UNL1        0.2459
      3 O          59.9203   88.9605   11.8888 O.2     1  UNL1       -0.2701
      4 H          62.5417   88.1996    9.7211 H       1  UNL1        0.1498
      5 C          62.4635   88.8806   12.4136 C.ar    1  UNL1        0.0548
      6 C          63.1956   90.1856   12.5177 C.ar    1  UNL1        0.0091
      7 C          64.3264   90.3357   13.4918 C.ar    1  UNL1        0.0548
      8 C          64.7250   89.1807   14.3618 C.ar    1  UNL1        0.0206
      9 C          63.9929   87.8756   14.2578 C.ar    1  UNL1        0.0688
     10 C          62.8622   87.7255   13.2837 C.ar    1  UNL1        0.0206
     11 C          65.0584   91.6407   13.5958 C.2     1  UNL1        0.2461
     12 O          65.3443   92.2350   14.9431 O.2     1  UNL1       -0.2701
     13 N          65.5047   92.3516   12.3526 N.am    1  UNL1       -0.2987
     14 H          65.3172   91.9615   11.4683 H       1  UNL1        0.1500
     15 C          66.2368   93.6566   12.4566 C.3     1  UNL1        0.0944
     16 C          66.6782   94.1642   13.7974 C.3     1  UNL1        0.0262
     17 C          66.5276   94.4542   11.2200 C.ar    1  UNL1       -0.0045
     18 C          67.1453   93.7883   10.0261 C.ar    1  UNL1       -0.0027
     19 C          67.4360   94.5859    8.7894 C.ar    1  UNL1       -0.0003
     20 C          67.1091   96.0493    8.7466 C.ar    1  UNL1       -0.0000
     21 C          66.4915   96.7150    9.9404 C.ar    1  UNL1       -0.0003
     22 C          66.2007   95.9174   11.1771 C.ar    1  UNL1       -0.0027
     23 N          64.3916   86.7206   15.1279 N.pl3   1  UNL1       -0.1925
     24 C          65.6817   85.9992   14.8722 C.3     1  UNL1        0.1388
     25 S          63.5002   86.2870   16.2536 S.O2    1  UNL1        0.0588
     26 C          62.6087   85.8533   17.3794 C.3     1  UNL1        0.1999
     27 O          63.2850   87.7214   16.6358 O.2     1  UNL1       -0.1542
     28 O          63.7153   84.8526   15.8714 O.2     1  UNL1       -0.1542
     29 C          60.4839   88.2004    9.0419 C.3     1  UNL1        0.1043
     30 C          59.8122   89.4179    8.4791 C.3     1  UNL1        0.1443
     31 O          59.6030   90.6260    9.3432 O.3     1  UNL1       -0.3813
     32 H          59.9571   90.4546   10.2299 H       1  UNL1        0.2105
     33 C          59.3498   89.4273    7.0522 C.3     1  UNL1        0.1001
     34 N          60.1517   90.1470    6.0087 N.3     1  UNL1       -0.2917
     35 H          60.9440   90.5739    6.4888 H       1  UNL1        0.1236
     36 C          59.5135   91.2249    5.1835 C.3     1  UNL1        0.0958
     37 C          60.3523   93.4474    2.0044 C.ar    1  UNL1        0.1385
     38 C          61.8089   93.1406    1.8203 C.ar    1  UNL1        0.0369
     39 C          62.5005   92.1952    2.7573 C.ar    1  UNL1        0.0028
     40 C          61.7353   91.5566    3.8784 C.ar    1  UNL1       -0.0027
     41 C          60.2786   91.8634    4.0624 C.ar    1  UNL1       -0.0034
     42 C          59.5870   92.8089    3.1255 C.ar    1  UNL1        0.0340
     43 C          58.7645   93.8590   -0.0105 C.3     1  UNL1        0.2525
     44 O          59.6607   94.3929    1.0674 O.3     1  UNL1       -0.4714
     45 C          60.0247   86.8330    8.6306 C.3     1  UNL1        0.0484
     46 C          60.9531   85.9242    7.8808 C.ar    1  UNL1       -0.0204
     47 C          62.3464   85.6926    8.3861 C.ar    1  UNL1       -0.0042
     48 C          63.2747   84.7838    7.6363 C.ar    1  UNL1       -0.0003
     49 C          62.8099   84.1066    6.3812 C.ar    1  UNL1       -0.0000
     50 C          61.4167   84.3381    5.8759 C.ar    1  UNL1       -0.0003
     51 C          60.4883   85.2469    6.6257 C.ar    1  UNL1       -0.0042
@<TRIPOS>BOND
     1    43    44    1
     2    44    37    1
     3    37    38   ar
     4    38    39   ar
     5    39    40   ar
     6    40    41   ar
     7    41    36    1
     8    36    34    1
     9    34    33    1
    10    33    30    1
    11    30    31    1
    12    30    29    1
    13    29    45    1
    14    45    46    1
    15    46    47   ar
    16    47    48   ar
    17    48    49   ar
    18    49    50   ar
    19    50    51   ar
    20    29     1    1
    21     1     2   am
    22     2     3    2
    23     2     5    1
    24     5     6   ar
    25     6     7   ar
    26     7    11    1
    27    11    12    2
    28    11    13   am
    29    13    15    1
    30    15    16    1
    31    15    17    1
    32    17    18   ar
    33    18    19   ar
    34    19    20   ar
    35    20    21   ar
    36    21    22   ar
    37     7     8   ar
    38     8     9   ar
    39     9    23    1
    40    23    24    1
    41    23    25    1
    42    25    26    1
    43    25    27    2
    44    25    28    2
    45     9    10   ar
    46    41    42   ar
    47    42    37   ar
    48    51    46   ar
    49    10     5   ar
    50    22    17   ar
    51    34    35    1
    52    31    32    1
    53     1     4    1
    54    13    14    1
@<TRIPOS>MOLECULE
*****
 51 54 0 0 0
SMALL
GASTEIGER

@<TRIPOS>ATOM
      1 N          60.9232   88.6924    8.8940 N.am    1  UNL1       -0.2997
      2 C          60.7823   88.6366   10.3864 C.2     1  UNL1        0.2459
      3 O          59.4988   88.1628   11.0013 O.2     1  UNL1       -0.2701
      4 H          61.7656   89.0034    8.4903 H       1  UNL1        0.1498
      5 C          61.9248   89.0548   11.2637 C.ar    1  UNL1        0.0548
      6 C          62.6756   90.3187   10.9658 C.ar    1  UNL1        0.0091
      7 C          63.8182   90.7368   11.8432 C.ar    1  UNL1        0.0548
      8 C          64.2100   89.8910   13.0183 C.ar    1  UNL1        0.0206
      9 C          63.4592   88.6270   13.3162 C.ar    1  UNL1        0.0688
     10 C          62.3166   88.2089   12.4389 C.ar    1  UNL1        0.0206
     11 C          64.5690   92.0007   11.5453 C.2     1  UNL1        0.2461
     12 O          64.3292   92.7295   10.2564 O.2     1  UNL1       -0.2701
     13 N          65.5596   92.5360   12.5365 N.am    1  UNL1       -0.2987
     14 H          65.7169   92.0577   13.3825 H       1  UNL1        0.1500
     15 C          66.3104   93.7999   12.2387 C.3     1  UNL1        0.0944
     16 C          66.5234   94.8181   13.3194 C.3     1  UNL1        0.0262
     17 C          66.8481   94.0457   10.8601 C.ar    1  UNL1       -0.0045
     18 C          67.6732   92.9947   10.1785 C.ar    1  UNL1       -0.0027
     19 C          68.2110   93.2405    8.8000 C.ar    1  UNL1       -0.0003
     20 C          67.9236   94.5374    8.1030 C.ar    1  UNL1       -0.0000
     21 C          67.0985   95.5883    8.7846 C.ar    1  UNL1       -0.0003
     22 C          66.5608   95.3425   10.1632 C.ar    1  UNL1       -0.0027
     23 N          63.8510   87.7812   14.4914 N.pl3   1  UNL1       -0.1925
     24 C          64.6494   86.5288   14.2811 C.3     1  UNL1        0.1388
     25 S          63.4444   88.1877   15.8768 S.O2    1  UNL1        0.0588
     26 C          63.0378   88.5942   17.2622 C.3     1  UNL1        0.1999
     27 O          63.5059   89.6305   15.4714 O.2     1  UNL1       -0.1542
     28 O          63.3829   86.7448   16.2821 O.2     1  UNL1       -0.1542
     29 C          59.7806   88.2742    8.0166 C.3     1  UNL1        0.1043
     30 C          59.6111   86.8315    7.6426 C.3     1  UNL1        0.1443
     31 O          58.2357   86.2497    7.5020 O.3     1  UNL1       -0.3813
     32 H          57.5744   86.9352    7.6855 H       1  UNL1        0.2105
     33 C          60.8171   85.9706    7.4092 C.3     1  UNL1        0.1001
     34 N          61.9713   86.0214    8.3658 N.3     1  UNL1       -0.2917
     35 H          62.6811   85.3840    8.0049 H       1  UNL1        0.1236
     36 C          61.7655   85.6679    9.8090 C.3     1  UNL1        0.0958
     37 C          63.4264   83.3798   12.5940 C.ar    1  UNL1        0.1385
     38 C          64.3977   82.5889   11.7689 C.ar    1  UNL1        0.0369
     39 C          64.4917   82.8244   10.2904 C.ar    1  UNL1        0.0028
     40 C          63.6143   83.8507    9.6372 C.ar    1  UNL1       -0.0027
     41 C          62.6429   84.6416   10.4623 C.ar    1  UNL1       -0.0034
     42 C          62.5489   84.4062   11.9407 C.ar    1  UNL1        0.0340
     43 C          62.2831   82.2228   14.6199 C.3     1  UNL1        0.2525
     44 O          63.3324   83.1444   14.0724 O.3     1  UNL1       -0.4714
     45 C          58.8075   89.2988    7.5133 C.3     1  UNL1        0.0484
     46 C          59.1660   90.1603    6.3390 C.ar    1  UNL1       -0.0204
     47 C          58.1016   90.9474    5.6335 C.ar    1  UNL1       -0.0042
     48 C          58.4601   91.8090    4.4591 C.ar    1  UNL1       -0.0003
     49 C          59.8830   91.8834    3.9901 C.ar    1  UNL1       -0.0000
     50 C          60.9473   91.0964    4.6955 C.ar    1  UNL1       -0.0003
     51 C          60.5889   90.2348    5.8700 C.ar    1  UNL1       -0.0042
@<TRIPOS>BOND
     1    43    44    1
     2    44    37    1
     3    37    38   ar
     4    38    39   ar
     5    39    40   ar
     6    40    41   ar
     7    41    36    1
     8    36    34    1
     9    34    33    1
    10    33    30    1
    11    30    31    1
    12    30    29    1
    13    29    45    1
    14    45    46    1
    15    46    47   ar
    16    47    48   ar
    17    48    49   ar
    18    49    50   ar
    19    50    51   ar
    20    29     1    1
    21     1     2   am
    22     2     3    2
    23     2     5    1
    24     5     6   ar
    25     6     7   ar
    26     7    11    1
    27    11    12    2
    28    11    13   am
    29    13    15    1
    30    15    16    1
    31    15    17    1
    32    17    18   ar
    33    18    19   ar
    34    19    20   ar
    35    20    21   ar
    36    21    22   ar
    37     7     8   ar
    38     8     9   ar
    39     9    23    1
    40    23    24    1
    41    23    25    1
    42    25    26    1
    43    25    27    2
    44    25    28    2
    45     9    10   ar
    46    41    42   ar
    47    42    37   ar
    48    51    46   ar
    49    10     5   ar
    50    22    17   ar
    51    34    35    1
    52    31    32    1
    53     1     4    1
    54    13    14    1
@<TRIPOS>MOLECULE
*****
 51 54 0 0 0
SMALL
GASTEIGER

@<TRIPOS>ATOM
      1 N          63.6536   87.2973   14.1205 N.am    1  UNL1       -0.2997
      2 C          62.7323   86.9480   12.9894 C.2     1  UNL1        0.2459
      3 O          62.0061   85.6355   12.9916 O.2     1  UNL1       -0.2701
      4 H          64.1303   88.1587   14.1190 H       1  UNL1        0.1498
      5 C          62.5373   87.9112   11.8562 C.ar    1  UNL1        0.0548
      6 C          63.3277   89.1852   11.8102 C.ar    1  UNL1        0.0091
      7 C          63.1327   90.1484   10.6770 C.ar    1  UNL1        0.0548
      8 C          62.1472   89.8376    9.5897 C.ar    1  UNL1        0.0206
      9 C          61.3567   88.5636    9.6356 C.ar    1  UNL1        0.0688
     10 C          61.5517   87.6004   10.7689 C.ar    1  UNL1        0.0206
     11 C          63.9231   91.4223   10.6310 C.2     1  UNL1        0.2461
     12 O          63.6001   92.4688    9.6061 O.2     1  UNL1       -0.2701
     13 N          65.0367   91.6498   11.6100 N.am    1  UNL1       -0.2987
     14 H          65.2487   90.9630   12.2828 H       1  UNL1        0.1500
     15 C          65.8271   92.9238   11.5641 C.3     1  UNL1        0.0944
     16 C          65.7311   93.9072   12.6928 C.3     1  UNL1        0.0262
     17 C          66.7136   93.2145   10.3895 C.ar    1  UNL1       -0.0045
     18 C          66.5544   94.4977    9.6291 C.ar    1  UNL1       -0.0027
     19 C          67.4409   94.7884    8.4545 C.ar    1  UNL1       -0.0003
     20 C          68.4865   93.7958    8.0403 C.ar    1  UNL1       -0.0000
     21 C          68.6456   92.5127    8.8006 C.ar    1  UNL1       -0.0003
     22 C          67.7592   92.2220    9.9752 C.ar    1  UNL1       -0.0027
     23 N          60.3712   88.2528    8.5484 N.pl3   1  UNL1       -0.1925
     24 C          59.5262   89.3472    7.9667 C.3     1  UNL1        0.1388
     25 S          60.2307   86.8477    8.0427 S.O2    1  UNL1        0.0588
     26 C          60.0901   85.4424    7.5371 C.3     1  UNL1        0.1999
     27 O          61.7038   86.6339    8.2275 O.2     1  UNL1       -0.1542
     28 O          58.7576   87.0615    7.8580 O.2     1  UNL1       -0.1542
     29 C          63.8487   86.3341   15.2537 C.3     1  UNL1        0.1043
     30 C          63.2293   86.6140   16.5910 C.3     1  UNL1        0.1443
     31 O          62.6658   85.4885   17.4068 O.3     1  UNL1       -0.3813
     32 H          62.7819   84.6527   16.9285 H       1  UNL1        0.2105
     33 C          63.1736   88.0194   17.1123 C.3     1  UNL1        0.1001
     34 N          62.6800   89.1275   16.2301 N.3     1  UNL1       -0.2917
     35 H          62.9097   88.8653   15.2715 H       1  UNL1        0.1236
     36 C          63.1846   90.5260   16.4292 C.3     1  UNL1        0.0958
     37 C          66.5750   92.5178   15.8926 C.ar    1  UNL1        0.1385
     38 C          67.1948   91.7274   14.7786 C.ar    1  UNL1        0.0369
     39 C          66.4779   90.5366   14.2147 C.ar    1  UNL1        0.0028
     40 C          65.1412   90.1361   14.7649 C.ar    1  UNL1       -0.0027
     41 C          64.5213   90.9265   15.8790 C.ar    1  UNL1       -0.0034
     42 C          65.2382   92.1173   16.4428 C.ar    1  UNL1        0.0340
     43 C          68.7148   93.9809   16.0675 C.3     1  UNL1        0.2525
     44 O          67.2920   93.7086   16.4565 O.3     1  UNL1       -0.4714
     45 C          64.6630   85.0910   15.0497 C.3     1  UNL1        0.0484
     46 C          64.0614   83.9063   14.3537 C.ar    1  UNL1       -0.0204
     47 C          64.5859   83.4764   13.0157 C.ar    1  UNL1       -0.0042
     48 C          63.9844   82.2917   12.3197 C.ar    1  UNL1       -0.0003
     49 C          62.8584   81.5367   12.9617 C.ar    1  UNL1       -0.0000
     50 C          62.3339   81.9664   14.2996 C.ar    1  UNL1       -0.0003
     51 C          62.9354   83.1513   14.9957 C.ar    1  UNL1       -0.0042
@<TRIPOS>BOND
     1    43    44    1
     2    44    37    1
     3    37    38   ar
     4    38    39   ar
     5    39    40   ar
     6    40    41   ar
     7    41    36    1
     8    36    34    1
     9    34    33    1
    10    33    30    1
    11    30    31    1
    12    30    29    1
    13    29    45    1
    14    45    46    1
    15    46    47   ar
    16    47    48   ar
    17    48    49   ar
    18    49    50   ar
    19    50    51   ar
    20    29     1    1
    21     1     2   am
    22     2     3    2
    23     2     5    1
    24     5     6   ar
    25     6     7   ar
    26     7    11    1
    27    11    12    2
    28    11    13   am
    29    13    15    1
    30    15    16    1
    31    15    17    1
    32    17    18   ar
    33    18    19   ar
    34    19    20   ar
    35    20    21   ar
    36    21    22   ar
    37     7     8   ar
    38     8     9   ar
    39     9    23    1
    40    23    24    1
    41    23    25    1
    42    25    26    1
    43    25    27    2
    44    25    28    2
    45     9    10   ar
    46    41    42   ar
    47    42    37   ar
    48    51    46   ar
    49    10     5   ar
    50    22    17   ar
    51    34    35    1
    52    31    32    1
    53     1     4    1
    54    13    14    1
@<TRIPOS>MOLECULE
*****
 51 54 0 0 0
SMALL
GASTEIGER

@<TRIPOS>ATOM
      1 N          62.8815   85.5145   12.7911 N.am    1  UNL1       -0.2997
      2 C          62.3123   85.7372   11.4212 C.2     1  UNL1        0.2459
      3 O          61.9836   84.5643   10.5459 O.2     1  UNL1       -0.2701
      4 H          63.0972   86.2843   13.3657 H       1  UNL1        0.1498
      5 C          62.0720   87.1328   10.9268 C.ar    1  UNL1        0.0548
      6 C          61.2017   87.3639    9.7271 C.ar    1  UNL1        0.0091
      7 C          60.9613   88.7595    9.2326 C.ar    1  UNL1        0.0548
      8 C          61.5912   89.9240    9.9378 C.ar    1  UNL1        0.0206
      9 C          62.4614   89.6929   11.1375 C.ar    1  UNL1        0.0688
     10 C          62.7018   88.2973   11.6320 C.ar    1  UNL1        0.0206
     11 C          60.0911   88.9907    8.0330 C.2     1  UNL1        0.2461
     12 O          59.0632   87.9698    7.6441 O.2     1  UNL1       -0.2701
     13 N          60.2488   90.2428    7.2221 N.am    1  UNL1       -0.2987
     14 H          60.9234   90.9129    7.4773 H       1  UNL1        0.1500
     15 C          59.3785   90.4740    6.0224 C.3     1  UNL1        0.0944
     16 C          57.9742   89.9471    6.0018 C.3     1  UNL1        0.0262
     17 C          59.9126   91.2319    4.8433 C.ar    1  UNL1       -0.0045
     18 C          61.3659   91.1344    4.4847 C.ar    1  UNL1       -0.0027
     19 C          61.8999   91.8924    3.3056 C.ar    1  UNL1       -0.0003
     20 C          60.9807   92.7479    2.4851 C.ar    1  UNL1       -0.0000
     21 C          59.5274   92.8453    2.8437 C.ar    1  UNL1       -0.0003
     22 C          58.9934   92.0874    4.0228 C.ar    1  UNL1       -0.0027
     23 N          63.0913   90.8573   11.8427 N.pl3   1  UNL1       -0.1925
     24 C          62.6499   91.2227   13.2289 C.3     1  UNL1        0.1388
     25 S          64.1625   91.6564   11.1617 S.O2    1  UNL1        0.0588
     26 C          65.2338   92.4555   10.4805 C.3     1  UNL1        0.1999
     27 O          64.9664   91.6581   12.4281 O.2     1  UNL1       -0.1542
     28 O          63.3587   91.6547    9.8953 O.2     1  UNL1       -0.1542
     29 C          63.1219   84.1189   13.2856 C.3     1  UNL1        0.1043
     30 C          62.4081   83.6230   14.5082 C.3     1  UNL1        0.1443
     31 O          61.3013   82.6194   14.3752 O.3     1  UNL1       -0.3813
     32 H          61.1757   82.3988   13.4390 H       1  UNL1        0.2105
     33 C          62.8011   84.1308   15.8638 C.3     1  UNL1        0.1001
     34 N          61.9705   85.1801   16.5414 N.3     1  UNL1       -0.2917
     35 H          61.3991   85.6161   15.8176 H       1  UNL1        0.1236
     36 C          62.6366   86.2924   17.2959 C.3     1  UNL1        0.0958
     37 C          63.6607   89.9955   16.3018 C.ar    1  UNL1        0.1385
     38 C          64.4694   89.7433   15.0639 C.ar    1  UNL1        0.0369
     39 C          64.6671   88.3408   14.5700 C.ar    1  UNL1        0.0028
     40 C          64.0562   87.1905   15.3140 C.ar    1  UNL1       -0.0027
     41 C          63.2475   87.4426   16.5519 C.ar    1  UNL1       -0.0034
     42 C          63.0497   88.8451   17.0458 C.ar    1  UNL1        0.0340
     43 C          64.6013   92.3740   16.7576 C.3     1  UNL1        0.2525
     44 O          63.4630   91.3979   16.7957 O.3     1  UNL1       -0.4714
     45 C          64.0760   83.2192   12.5576 C.3     1  UNL1        0.0484
     46 C          63.5996   81.9060   12.0110 C.ar    1  UNL1       -0.0204
     47 C          63.5594   81.6809   10.5285 C.ar    1  UNL1       -0.0042
     48 C          63.0831   80.3678    9.9820 C.ar    1  UNL1       -0.0003
     49 C          62.6470   79.2797   10.9179 C.ar    1  UNL1       -0.0000
     50 C          62.6872   79.5048   12.4003 C.ar    1  UNL1       -0.0003
     51 C          63.1635   80.8180   12.9469 C.ar    1  UNL1       -0.0042
@<TRIPOS>BOND
     1    43    44    1
     2    44    37    1
     3    37    38   ar
     4    38    39   ar
     5    39    40   ar
     6    40    41   ar
     7    41    36    1
     8    36    34    1
     9    34    33    1
    10    33    30    1
    11    30    31    1
    12    30    29    1
    13    29    45    1
    14    45    46    1
    15    46    47   ar
    16    47    48   ar
    17    48    49   ar
    18    49    50   ar
    19    50    51   ar
    20    29     1    1
    21     1     2   am
    22     2     3    2
    23     2     5    1
    24     5     6   ar
    25     6     7   ar
    26     7    11    1
    27    11    12    2
    28    11    13   am
    29    13    15    1
    30    15    16    1
    31    15    17    1
    32    17    18   ar
    33    18    19   ar
    34    19    20   ar
    35    20    21   ar
    36    21    22   ar
    37     7     8   ar
    38     8     9   ar
    39     9    23    1
    40    23    24    1
    41    23    25    1
    42    25    26    1
    43    25    27    2
    44    25    28    2
    45     9    10   ar
    46    41    42   ar
    47    42    37   ar
    48    51    46   ar
    49    10     5   ar
    50    22    17   ar
    51    34    35    1
    52    31    32    1
    53     1     4    1
    54    13    14    1
@<TRIPOS>MOLECULE
*****
 51 54 0 0 0
SMALL
GASTEIGER

@<TRIPOS>ATOM
      1 N          60.3853   90.1307    6.1951 N.am    1  UNL1       -0.2997
      2 C          59.5480   90.9867    5.2916 C.2     1  UNL1        0.2459
      3 O          58.1029   91.2273    5.6137 O.2     1  UNL1       -0.2701
      4 H          61.3338   89.9728    5.9837 H       1  UNL1        0.1498
      5 C          60.1558   91.6022    4.0662 C.ar    1  UNL1        0.0548
      6 C          59.2790   92.2696    3.0485 C.ar    1  UNL1        0.0091
      7 C          59.8868   92.8851    1.8230 C.ar    1  UNL1        0.0548
      8 C          61.3714   92.8332    1.6153 C.ar    1  UNL1        0.0206
      9 C          62.2483   92.1657    2.6330 C.ar    1  UNL1        0.0688
     10 C          61.6405   91.5503    3.8585 C.ar    1  UNL1        0.0206
     11 C          59.0101   93.5524    0.8053 C.2     1  UNL1        0.2461
     12 O          59.0492   95.0432    0.6437 O.2     1  UNL1       -0.2701
     13 N          58.0940   92.7291   -0.0509 N.am    1  UNL1       -0.2987
     14 H          58.0683   91.7506    0.0551 H       1  UNL1        0.1500
     15 C          57.2173   93.3964   -1.0687 C.3     1  UNL1        0.0944
     16 C          56.6941   94.7795   -0.8165 C.3     1  UNL1        0.0262
     17 C          56.8636   92.6808   -2.3386 C.ar    1  UNL1       -0.0045
     18 C          55.9877   91.4638   -2.2948 C.ar    1  UNL1       -0.0027
     19 C          55.6340   90.7482   -3.5647 C.ar    1  UNL1       -0.0003
     20 C          56.1562   91.2496   -4.8786 C.ar    1  UNL1       -0.0000
     21 C          57.0320   92.4666   -4.9223 C.ar    1  UNL1       -0.0003
     22 C          57.3857   93.1822   -3.6524 C.ar    1  UNL1       -0.0027
     23 N          63.7329   92.1138    2.4253 N.pl3   1  UNL1       -0.1925
     24 C          64.5082   90.9029    2.8528 C.3     1  UNL1        0.1388
     25 S          64.4423   93.2728    1.7901 S.O2    1  UNL1        0.0588
     26 C          65.1517   94.4319    1.1549 C.3     1  UNL1        0.1999
     27 O          64.9912   92.3587    0.7351 O.2     1  UNL1       -0.1542
     28 O          63.8934   94.1870    2.8450 O.2     1  UNL1       -0.1542
     29 C          59.7775   89.5152    7.4205 C.3     1  UNL1        0.1043
     30 C          59.3434   88.0795    7.4021 C.3     1  UNL1        0.1443
     31 O          57.8834   87.7380    7.3593 O.3     1  UNL1       -0.3813
     32 H          57.3604   88.5548    7.3480 H       1  UNL1        0.2105
     33 C          60.3692   86.9854    7.4265 C.3     1  UNL1        0.1001
     34 N          60.8399   86.4279    8.7371 N.3     1  UNL1       -0.2917
     35 H          60.5518   87.0887    9.4587 H       1  UNL1        0.1236
     36 C          62.2989   86.1564    8.9560 C.3     1  UNL1        0.0958
     37 C          62.8140   84.5653   12.5550 C.ar    1  UNL1        0.1385
     38 C          63.5988   83.3343   12.2110 C.ar    1  UNL1        0.0369
     39 C          63.9504   83.0439   10.7820 C.ar    1  UNL1        0.0028
     40 C          63.5171   83.9846    9.6970 C.ar    1  UNL1       -0.0027
     41 C          62.7322   85.2157   10.0410 C.ar    1  UNL1       -0.0034
     42 C          62.3806   85.5061   11.4700 C.ar    1  UNL1        0.0340
     43 C          62.3847   83.7365   14.9796 C.3     1  UNL1        0.2525
     44 O          62.4624   84.8557   13.9841 O.3     1  UNL1       -0.4714
     45 C          59.6038   90.3354    8.6643 C.3     1  UNL1        0.0484
     46 C          60.4453   90.0518    9.8732 C.ar    1  UNL1       -0.0204
     47 C          59.8129   90.0036   11.2326 C.ar    1  UNL1       -0.0042
     48 C          60.6544   89.7200   12.4416 C.ar    1  UNL1       -0.0003
     49 C          62.1281   89.4846   12.2912 C.ar    1  UNL1       -0.0000
     50 C          62.7605   89.5329   10.9318 C.ar    1  UNL1       -0.0003
     51 C          61.9190   89.8165    9.7228 C.ar    1  UNL1       -0.0042
@<TRIPOS>BOND
     1    43    44    1
     2    44    37    1
     3    37    38   ar
     4    38    39   ar
     5    39    40   ar
     6    40    41   ar
     7    41    36    1
     8    36    34    1
     9    34    33    1
    10    33    30    1
    11    30    31    1
    12    30    29    1
    13    29    45    1
    14    45    46    1
    15    46    47   ar
    16    47    48   ar
    17    48    49   ar
    18    49    50   ar
    19    50    51   ar
    20    29     1    1
    21     1     2   am
    22     2     3    2
    23     2     5    1
    24     5     6   ar
    25     6     7   ar
    26     7    11    1
    27    11    12    2
    28    11    13   am
    29    13    15    1
    30    15    16    1
    31    15    17    1
    32    17    18   ar
    33    18    19   ar
    34    19    20   ar
    35    20    21   ar
    36    21    22   ar
    37     7     8   ar
    38     8     9   ar
    39     9    23    1
    40    23    24    1
    41    23    25    1
    42    25    26    1
    43    25    27    2
    44    25    28    2
    45     9    10   ar
    46    41    42   ar
    47    42    37   ar
    48    51    46   ar
    49    10     5   ar
    50    22    17   ar
    51    34    35    1
    52    31    32    1
    53     1     4    1
    54    13    14    1
