@<TRIPOS>MOLECULE
*****
 32 35 0 0 0
SMALL
GASTEIGER

@<TRIPOS>ATOM
      1 C          59.3596   89.0742    7.1638 C.ar    1  UNL1        0.0770
      2 C          58.8845   87.6587    7.3073 C.ar    1  UNL1        0.0080
      3 C          59.5536   86.7384    8.2847 C.ar    1  UNL1        0.0190
      4 C          60.6979   87.2336    9.1186 C.ar    1  UNL1        0.0789
      5 C          61.1730   88.6491    8.9751 C.ar    1  UNL1        0.0671
      6 C          60.5038   89.5693    7.9977 C.ar    1  UNL1        0.0226
      7 N          61.3670   86.3133   10.0960 N.ar    1  UNL1       -0.2852
      8 C          62.2917   85.1834    9.7522 C.ar    1  UNL1        0.1023
      9 C          62.7251   84.5331   11.0325 C.ar    1  UNL1        0.1196
     10 N          62.0682   85.2610   12.1677 N.ar    1  UNL1       -0.2220
     11 C          61.2289   86.3612   11.5889 C.ar    1  UNL1        0.1829
     12 N          62.3173   89.1443    9.8091 N.am    1  UNL1       -0.2792
     13 C          62.0552   90.0243   10.9951 C.2     1  UNL1        0.2526
     14 O          60.6488   90.4092   11.3473 O.2     1  UNL1       -0.2697
     15 H          63.2403   88.8917    9.5779 H       1  UNL1        0.1552
     16 C          63.1995   90.5196   11.8291 C.ar    1  UNL1        0.0919
     17 C          64.0495   91.6538   11.3382 C.ar    1  UNL1        0.1066
     18 N          65.1937   92.1490   12.1721 N.ar    1  UNL1       -0.2249
     19 C          65.4879   91.5100   13.4969 C.ar    1  UNL1        0.1623
     20 N          64.6380   90.3757   13.9878 N.ar    1  UNL1       -0.2249
     21 C          63.4937   89.8805   13.1538 C.ar    1  UNL1        0.1066
     22 C          66.6322   92.0052   14.3308 C.ar    1  UNL1        0.0358
     23 C          66.3822   92.5195   15.7176 C.ar    1  UNL1        0.0030
     24 C          67.5265   93.0147   16.5514 C.ar    1  UNL1        0.0001
     25 C          68.9208   92.9957   15.9986 C.ar    1  UNL1        0.0000
     26 C          69.1708   92.4814   14.6118 C.ar    1  UNL1        0.0001
     27 C          68.0265   91.9862   13.7780 C.ar    1  UNL1        0.0030
     28 C          58.6905   89.9945    6.1864 C.2     1  UNL1        0.3412
     29 O          57.1973   90.1373    6.1921 O.2     1  UNL1       -0.2449
     30 O          59.5145   90.7719    5.2033 O.3     1  UNL1       -0.4454
     31 C          59.7427   92.7376    3.5198 C.3     1  UNL1        0.0513
     32 C          58.9528   92.0081    4.5658 C.3     1  UNL1        0.2089
@<TRIPOS>BOND
     1    31    32    1
     2    32    30    1
     3    30    28    1
     4    28    29    2
     5    28     1    1
     6     1     2   ar
     7     2     3   ar
     8     3     4   ar
     9     4     7    1
    10     7     8   ar
    11     8     9   ar
    12     9    10   ar
    13    10    11   ar
    14     4     5   ar
    15     5    12    1
    16    12    13   am
    17    13    14    2
    18    13    16    1
    19    16    17   ar
    20    17    18   ar
    21    18    19   ar
    22    19    22    1
    23    22    23   ar
    24    23    24   ar
    25    24    25   ar
    26    25    26   ar
    27    26    27   ar
    28    19    20   ar
    29    20    21   ar
    30     5     6   ar
    31     6     1   ar
    32    11     7   ar
    33    21    16   ar
    34    27    22   ar
    35    12    15    1
@<TRIPOS>MOLECULE
*****
 32 35 0 0 0
SMALL
GASTEIGER

@<TRIPOS>ATOM
      1 C          63.8704   84.3585   13.8845 C.ar    1  UNL1        0.0770
      2 C          64.4956   85.0353   15.0682 C.ar    1  UNL1        0.0080
      3 C          64.4862   86.5320   15.1678 C.ar    1  UNL1        0.0190
      4 C          63.8516   87.3518   14.0839 C.ar    1  UNL1        0.0789
      5 C          63.2264   86.6751   12.9002 C.ar    1  UNL1        0.0671
      6 C          63.2358   85.1784   12.8006 C.ar    1  UNL1        0.0226
      7 N          63.8423   88.8485   14.1836 N.ar    1  UNL1       -0.2852
      8 C          64.1657   89.8079   13.0768 C.ar    1  UNL1        0.1023
      9 C          64.0311   91.2009   13.6167 C.ar    1  UNL1        0.1196
     10 N          63.6246   91.1024   15.0572 N.ar    1  UNL1       -0.2220
     11 C          63.5078   89.6486   15.4075 C.ar    1  UNL1        0.1829
     12 N          62.5918   87.4950   11.8162 N.am    1  UNL1       -0.2792
     13 C          61.7700   86.8267   10.7541 C.2     1  UNL1        0.2526
     14 O          61.5829   85.3386   10.7759 O.2     1  UNL1       -0.2697
     15 H          62.7146   88.4717   11.8019 H       1  UNL1        0.1552
     16 C          61.1354   87.6466    9.6700 C.ar    1  UNL1        0.0919
     17 C          60.3954   86.9706    8.5541 C.ar    1  UNL1        0.1066
     18 N          59.7608   87.7905    7.4702 N.ar    1  UNL1       -0.2249
     19 C          59.8662   89.2864    7.5021 C.ar    1  UNL1        0.1623
     20 N          60.6062   89.9625    8.6180 N.ar    1  UNL1       -0.2249
     21 C          61.2408   89.1426    9.7020 C.ar    1  UNL1        0.1066
     22 C          59.2315   90.1063    6.4181 C.ar    1  UNL1        0.0358
     23 C          57.7397   90.1188    6.2631 C.ar    1  UNL1        0.0030
     24 C          57.1051   90.9387    5.1791 C.ar    1  UNL1        0.0001
     25 C          57.9624   91.7461    4.2501 C.ar    1  UNL1        0.0000
     26 C          59.4543   91.7336    4.4050 C.ar    1  UNL1        0.0001
     27 C          60.0889   90.9137    5.4890 C.ar    1  UNL1        0.0030
     28 C          63.8797   82.8619   13.7849 C.2     1  UNL1        0.3412
     29 O          63.2885   82.0331   14.8864 O.2     1  UNL1       -0.2449
     30 O          64.4804   82.1940   12.5836 O.3     1  UNL1       -0.4454
     31 C          64.0624   82.8927   10.1164 C.3     1  UNL1        0.0513
     32 C          63.6866   82.0748   11.3164 C.3     1  UNL1        0.2089
@<TRIPOS>BOND
     1    31    32    1
     2    32    30    1
     3    30    28    1
     4    28    29    2
     5    28     1    1
     6     1     2   ar
     7     2     3   ar
     8     3     4   ar
     9     4     7    1
    10     7     8   ar
    11     8     9   ar
    12     9    10   ar
    13    10    11   ar
    14     4     5   ar
    15     5    12    1
    16    12    13   am
    17    13    14    2
    18    13    16    1
    19    16    17   ar
    20    17    18   ar
    21    18    19   ar
    22    19    22    1
    23    22    23   ar
    24    23    24   ar
    25    24    25   ar
    26    25    26   ar
    27    26    27   ar
    28    19    20   ar
    29    20    21   ar
    30     5     6   ar
    31     6     1   ar
    32    11     7   ar
    33    21    16   ar
    34    27    22   ar
    35    12    15    1
@<TRIPOS>MOLECULE
*****
 32 35 0 0 0
SMALL
GASTEIGER

@<TRIPOS>ATOM
      1 C          63.3137   83.1150   13.4774 C.ar    1  UNL1        0.0770
      2 C          64.2430   83.6960   14.5015 C.ar    1  UNL1        0.0080
      3 C          64.4253   85.1822   14.5913 C.ar    1  UNL1        0.0190
      4 C          63.6784   86.0873   13.6571 C.ar    1  UNL1        0.0789
      5 C          62.7491   85.5062   12.6331 C.ar    1  UNL1        0.0671
      6 C          62.5668   84.0201   12.5432 C.ar    1  UNL1        0.0226
      7 N          63.8607   87.5734   13.7470 N.ar    1  UNL1       -0.2852
      8 C          64.4102   88.3248   14.9233 C.ar    1  UNL1        0.1023
      9 C          64.4146   89.7849   14.5797 C.ar    1  UNL1        0.1196
     10 N          63.8680   89.9360   13.1910 N.ar    1  UNL1       -0.2220
     11 C          63.5256   88.5692   12.6764 C.ar    1  UNL1        0.1829
     12 N          62.0021   86.4114   11.6988 N.am    1  UNL1       -0.2792
     13 C          62.0764   86.1868   10.2176 C.2     1  UNL1        0.2526
     14 O          62.8977   85.0570    9.6706 O.2     1  UNL1       -0.2697
     15 H          61.4631   87.1529   12.0578 H       1  UNL1        0.1552
     16 C          61.3294   87.0919    9.2833 C.ar    1  UNL1        0.0919
     17 C          60.6326   86.5215    8.0837 C.ar    1  UNL1        0.1066
     18 N          59.8857   87.4267    7.1495 N.ar    1  UNL1       -0.2249
     19 C          59.8355   88.9021    7.4149 C.ar    1  UNL1        0.1623
     20 N          60.5322   89.4725    8.6146 N.ar    1  UNL1       -0.2249
     21 C          61.2792   88.5674    9.5488 C.ar    1  UNL1        0.1066
     22 C          59.0885   89.8073    6.4807 C.ar    1  UNL1        0.0358
     23 C          57.5929   89.7291    6.3965 C.ar    1  UNL1        0.0030
     24 C          56.8460   90.6342    5.4623 C.ar    1  UNL1        0.0001
     25 C          57.5946   91.6175    4.6122 C.ar    1  UNL1        0.0000
     26 C          59.0902   91.6956    4.6963 C.ar    1  UNL1        0.0001
     27 C          59.8371   90.7905    5.6306 C.ar    1  UNL1        0.0030
     28 C          63.1314   81.6288   13.3875 C.2     1  UNL1        0.3412
     29 O          64.3108   80.7171   13.5540 O.2     1  UNL1       -0.2449
     30 O          61.7697   81.0544   13.1311 O.3     1  UNL1       -0.4454
     31 C          59.6003   80.0962   14.1922 C.3     1  UNL1        0.0513
     32 C          60.7271   81.0862   14.2091 C.3     1  UNL1        0.2089
@<TRIPOS>BOND
     1    31    32    1
     2    32    30    1
     3    30    28    1
     4    28    29    2
     5    28     1    1
     6     1     2   ar
     7     2     3   ar
     8     3     4   ar
     9     4     7    1
    10     7     8   ar
    11     8     9   ar
    12     9    10   ar
    13    10    11   ar
    14     4     5   ar
    15     5    12    1
    16    12    13   am
    17    13    14    2
    18    13    16    1
    19    16    17   ar
    20    17    18   ar
    21    18    19   ar
    22    19    22    1
    23    22    23   ar
    24    23    24   ar
    25    24    25   ar
    26    25    26   ar
    27    26    27   ar
    28    19    20   ar
    29    20    21   ar
    30     5     6   ar
    31     6     1   ar
    32    11     7   ar
    33    21    16   ar
    34    27    22   ar
    35    12    15    1
@<TRIPOS>MOLECULE
*****
 32 35 0 0 0
SMALL
GASTEIGER

@<TRIPOS>ATOM
      1 C          58.0462   94.8870   -1.5869 C.ar    1  UNL1        0.0770
      2 C          59.3120   95.5767   -2.0014 C.ar    1  UNL1        0.0080
      3 C          60.5962   95.2819   -1.2844 C.ar    1  UNL1        0.0190
      4 C          60.6144   94.2974   -0.1529 C.ar    1  UNL1        0.0789
      5 C          59.3486   93.6077    0.2616 C.ar    1  UNL1        0.0671
      6 C          58.0644   93.9025   -0.4554 C.ar    1  UNL1        0.0226
      7 N          61.8986   94.0026    0.5642 N.ar    1  UNL1       -0.2852
      8 C          62.7642   95.0038    1.2700 C.ar    1  UNL1        0.1023
      9 C          63.9432   94.2748    1.8433 C.ar    1  UNL1        0.1196
     10 N          63.8061   92.8231    1.4918 N.ar    1  UNL1       -0.2220
     11 C          62.5425   92.6548    0.7013 C.ar    1  UNL1        0.1829
     12 N          59.3668   92.6231    1.3932 N.am    1  UNL1       -0.2792
     13 C          59.6217   93.0951    2.7940 C.2     1  UNL1        0.2526
     14 O          59.8583   94.5516    3.0633 O.2     1  UNL1       -0.2697
     15 H          59.2115   91.6671    1.2164 H       1  UNL1        0.1552
     16 C          59.6399   92.1105    3.9255 C.ar    1  UNL1        0.0919
     17 C          60.9266   91.4516    4.3257 C.ar    1  UNL1        0.1066
     18 N          60.9447   90.4670    5.4572 N.ar    1  UNL1       -0.2249
     19 C          59.6762   90.1414    6.1885 C.ar    1  UNL1        0.1623
     20 N          58.3895   90.8004    5.7883 N.ar    1  UNL1       -0.2249
     21 C          58.3713   91.7849    4.6568 C.ar    1  UNL1        0.1066
     22 C          59.6944   89.1569    7.3201 C.ar    1  UNL1        0.0358
     23 C          59.1902   87.7603    7.1073 C.ar    1  UNL1        0.0030
     24 C          59.2084   86.7758    8.2388 C.ar    1  UNL1        0.0001
     25 C          59.7309   87.1879    9.5831 C.ar    1  UNL1        0.0000
     26 C          60.2351   88.5844    9.7959 C.ar    1  UNL1        0.0001
     27 C          60.2169   89.5689    8.6644 C.ar    1  UNL1        0.0030
     28 C          56.7621   95.1818   -2.3039 C.2     1  UNL1        0.3412
     29 O          55.8597   96.2728   -1.8084 O.2     1  UNL1       -0.2449
     30 O          56.3803   94.3857   -3.5165 O.3     1  UNL1       -0.4454
     31 C          57.4949   92.0679   -3.8844 C.3     1  UNL1        0.0513
     32 C          56.3198   92.8887   -3.4424 C.3     1  UNL1        0.2089
@<TRIPOS>BOND
     1    31    32    1
     2    32    30    1
     3    30    28    1
     4    28    29    2
     5    28     1    1
     6     1     2   ar
     7     2     3   ar
     8     3     4   ar
     9     4     7    1
    10     7     8   ar
    11     8     9   ar
    12     9    10   ar
    13    10    11   ar
    14     4     5   ar
    15     5    12    1
    16    12    13   am
    17    13    14    2
    18    13    16    1
    19    16    17   ar
    20    17    18   ar
    21    18    19   ar
    22    19    22    1
    23    22    23   ar
    24    23    24   ar
    25    24    25   ar
    26    25    26   ar
    27    26    27   ar
    28    19    20   ar
    29    20    21   ar
    30     5     6   ar
    31     6     1   ar
    32    11     7   ar
    33    21    16   ar
    34    27    22   ar
    35    12    15    1
@<TRIPOS>MOLECULE
*****
 32 35 0 0 0
SMALL
GASTEIGER

@<TRIPOS>ATOM
      1 C          63.5293   94.5821    0.4572 C.ar    1  UNL1        0.0770
      2 C          64.5972   94.5014   -0.5930 C.ar    1  UNL1        0.0080
      3 C          64.2558   94.7578   -2.0310 C.ar    1  UNL1        0.0190
      4 C          62.8466   95.0949   -2.4187 C.ar    1  UNL1        0.0789
      5 C          61.7787   95.1756   -1.3685 C.ar    1  UNL1        0.0671
      6 C          62.1201   94.9192    0.0695 C.ar    1  UNL1        0.0226
      7 N          62.5052   95.3513   -3.8567 N.ar    1  UNL1       -0.2852
      8 C          62.5655   96.6779   -4.5542 C.ar    1  UNL1        0.1023
      9 C          62.1412   96.4726   -5.9782 C.ar    1  UNL1        0.1196
     10 N          61.8187   95.0191   -6.1608 N.ar    1  UNL1       -0.2220
     11 C          62.0437   94.3261   -4.8496 C.ar    1  UNL1        0.1829
     12 N          60.3694   95.5127   -1.7562 N.am    1  UNL1       -0.2792
     13 C          59.3296   94.4333   -1.8167 C.2     1  UNL1        0.2526
     14 O          59.6990   93.0168   -1.4895 O.2     1  UNL1       -0.2697
     15 H          60.1269   96.4424   -1.9709 H       1  UNL1        0.1552
     16 C          57.9202   94.7704   -2.2044 C.ar    1  UNL1        0.0919
     17 C          56.7846   94.4066   -1.2945 C.ar    1  UNL1        0.1066
     18 N          55.3754   94.7437   -1.6822 N.ar    1  UNL1       -0.2249
     19 C          55.1018   95.4446   -2.9798 C.ar    1  UNL1        0.1623
     20 N          56.2374   95.8084   -3.8897 N.ar    1  UNL1       -0.2249
     21 C          57.6466   95.4713   -3.5020 C.ar    1  UNL1        0.1066
     22 C          53.6924   95.7817   -3.3675 C.ar    1  UNL1        0.0358
     23 C          52.6147   95.8128   -2.3247 C.ar    1  UNL1        0.0030
     24 C          51.2055   96.1499   -2.7124 C.ar    1  UNL1        0.0001
     25 C          50.8740   96.4559   -4.1430 C.ar    1  UNL1        0.0000
     26 C          51.9517   96.4248   -5.1858 C.ar    1  UNL1        0.0001
     27 C          53.3609   96.0877   -4.7981 C.ar    1  UNL1        0.0030
     28 C          63.8706   94.3257    1.8952 C.2     1  UNL1        0.3412
     29 O          64.9859   95.0868    2.5485 O.2     1  UNL1       -0.2449
     30 O          63.0967   93.3083    2.6798 O.3     1  UNL1       -0.4454
     31 C          63.4487   90.7984    3.2513 C.3     1  UNL1        0.0513
     32 C          63.1072   91.8690    2.2576 C.3     1  UNL1        0.2089
@<TRIPOS>BOND
     1    31    32    1
     2    32    30    1
     3    30    28    1
     4    28    29    2
     5    28     1    1
     6     1     2   ar
     7     2     3   ar
     8     3     4   ar
     9     4     7    1
    10     7     8   ar
    11     8     9   ar
    12     9    10   ar
    13    10    11   ar
    14     4     5   ar
    15     5    12    1
    16    12    13   am
    17    13    14    2
    18    13    16    1
    19    16    17   ar
    20    17    18   ar
    21    18    19   ar
    22    19    22    1
    23    22    23   ar
    24    23    24   ar
    25    24    25   ar
    26    25    26   ar
    27    26    27   ar
    28    19    20   ar
    29    20    21   ar
    30     5     6   ar
    31     6     1   ar
    32    11     7   ar
    33    21    16   ar
    34    27    22   ar
    35    12    15    1
@<TRIPOS>MOLECULE
*****
 32 35 0 0 0
SMALL
GASTEIGER

@<TRIPOS>ATOM
      1 C          62.7908   81.9592   12.3174 C.ar    1  UNL1        0.0770
      2 C          62.0902   81.5444   13.5772 C.ar    1  UNL1        0.0080
      3 C          61.9317   82.5218   14.7039 C.ar    1  UNL1        0.0190
      4 C          62.4738   83.9140   14.5709 C.ar    1  UNL1        0.0789
      5 C          63.1744   84.3289   13.3111 C.ar    1  UNL1        0.0671
      6 C          63.3329   83.3514   12.1844 C.ar    1  UNL1        0.0226
      7 N          62.3152   84.8915   15.6976 N.ar    1  UNL1       -0.2852
      8 C          63.3972   85.3394   16.6350 C.ar    1  UNL1        0.1023
      9 C          62.7976   86.3174   17.6015 C.ar    1  UNL1        0.1196
     10 N          61.3450   86.4738   17.2614 N.ar    1  UNL1       -0.2220
     11 C          61.0469   85.5926   16.0847 C.ar    1  UNL1        0.1829
     12 N          63.7165   85.7212   13.1780 N.am    1  UNL1       -0.2792
     13 C          62.8704   86.8006   12.5708 C.2     1  UNL1        0.2526
     14 O          61.4821   86.4879   12.0967 O.2     1  UNL1       -0.2697
     15 H          64.6277   85.9265   13.4893 H       1  UNL1        0.1552
     16 C          63.4126   88.1930   12.4378 C.ar    1  UNL1        0.0919
     17 C          63.1307   88.9925   11.2003 C.ar    1  UNL1        0.1066
     18 N          63.6728   90.3847   11.0673 N.ar    1  UNL1       -0.2249
     19 C          64.4968   90.9774   12.1717 C.ar    1  UNL1        0.1623
     20 N          64.7787   90.1779   13.4092 N.ar    1  UNL1       -0.2249
     21 C          64.2365   88.7857   13.5422 C.ar    1  UNL1        0.1066
     22 C          65.0390   92.3697   12.0387 C.ar    1  UNL1        0.0358
     23 C          64.8873   93.1131   10.7447 C.ar    1  UNL1        0.0030
     24 C          65.4295   94.5053   10.6117 C.ar    1  UNL1        0.0001
     25 C          66.1232   95.1542   11.7726 C.ar    1  UNL1        0.0000
     26 C          66.2749   94.4108   13.0666 C.ar    1  UNL1        0.0001
     27 C          65.7327   93.0185   13.1996 C.ar    1  UNL1        0.0030
     28 C          62.9493   80.9818   11.1907 C.2     1  UNL1        0.3412
     29 O          63.5128   81.4365    9.8770 O.2     1  UNL1       -0.2449
     30 O          62.5444   79.5496   11.3776 O.3     1  UNL1       -0.4454
     31 C          63.0160   77.1295   10.5586 C.3     1  UNL1        0.0513
     32 C          62.7189   78.5684   10.2565 C.3     1  UNL1        0.2089
@<TRIPOS>BOND
     1    31    32    1
     2    32    30    1
     3    30    28    1
     4    28    29    2
     5    28     1    1
     6     1     2   ar
     7     2     3   ar
     8     3     4   ar
     9     4     7    1
    10     7     8   ar
    11     8     9   ar
    12     9    10   ar
    13    10    11   ar
    14     4     5   ar
    15     5    12    1
    16    12    13   am
    17    13    14    2
    18    13    16    1
    19    16    17   ar
    20    17    18   ar
    21    18    19   ar
    22    19    22    1
    23    22    23   ar
    24    23    24   ar
    25    24    25   ar
    26    25    26   ar
    27    26    27   ar
    28    19    20   ar
    29    20    21   ar
    30     5     6   ar
    31     6     1   ar
    32    11     7   ar
    33    21    16   ar
    34    27    22   ar
    35    12    15    1
@<TRIPOS>MOLECULE
*****
 32 35 0 0 0
SMALL
GASTEIGER

@<TRIPOS>ATOM
      1 C          64.8596   91.4248   14.1130 C.ar    1  UNL1        0.0770
      2 C          64.4980   91.6914   15.5441 C.ar    1  UNL1        0.0080
      3 C          63.8336   90.6233   16.3613 C.ar    1  UNL1        0.0190
      4 C          63.5308   89.2887   15.7474 C.ar    1  UNL1        0.0789
      5 C          63.8924   89.0221   14.3163 C.ar    1  UNL1        0.0671
      6 C          64.5569   90.0901   13.4991 C.ar    1  UNL1        0.0226
      7 N          62.8664   88.2206   16.5645 N.ar    1  UNL1       -0.2852
      8 C          63.3966   87.6242   17.8346 C.ar    1  UNL1        0.1023
      9 C          62.4130   86.5964   18.3102 C.ar    1  UNL1        0.1196
     10 N          61.2748   86.5576   17.3339 N.ar    1  UNL1       -0.2220
     11 C          61.5550   87.5614   16.2551 C.ar    1  UNL1        0.1829
     12 N          63.5897   87.6873   13.7023 N.am    1  UNL1       -0.2792
     13 C          64.3278   86.4653   14.1624 C.2     1  UNL1        0.2526
     14 O          65.3687   86.5779   15.2366 O.2     1  UNL1       -0.2697
     15 H          62.9065   87.6134   12.9972 H       1  UNL1        0.1552
     16 C          64.0250   85.1306   13.5484 C.ar    1  UNL1        0.0919
     17 C          63.1029   85.0395   12.3689 C.ar    1  UNL1        0.1066
     18 N          62.8002   83.7048   11.7549 N.ar    1  UNL1       -0.2249
     19 C          63.4195   82.4613   12.3206 C.ar    1  UNL1        0.1623
     20 N          64.3416   82.5524   13.5001 N.ar    1  UNL1       -0.2249
     21 C          64.6443   83.8870   14.1141 C.ar    1  UNL1        0.1066
     22 C          63.1167   81.1265   11.7066 C.ar    1  UNL1        0.0358
     23 C          62.7267   79.9706   12.5793 C.ar    1  UNL1        0.0030
     24 C          62.4239   78.6360   11.9653 C.ar    1  UNL1        0.0001
     25 C          62.5112   78.4573   10.4785 C.ar    1  UNL1        0.0000
     26 C          62.9013   79.6132    9.6058 C.ar    1  UNL1        0.0001
     27 C          63.2040   80.9478   10.2198 C.ar    1  UNL1        0.0030
     28 C          65.5241   92.4929   13.2958 C.2     1  UNL1        0.3412
     29 O          65.3150   92.5404   11.8113 O.2     1  UNL1       -0.2449
     30 O          66.3976   93.5134   13.9632 O.3     1  UNL1       -0.4454
     31 C          67.8589   93.0346   16.0574 C.3     1  UNL1        0.0513
     32 C          67.7073   93.1002   14.5664 C.3     1  UNL1        0.2089
@<TRIPOS>BOND
     1    31    32    1
     2    32    30    1
     3    30    28    1
     4    28    29    2
     5    28     1    1
     6     1     2   ar
     7     2     3   ar
     8     3     4   ar
     9     4     7    1
    10     7     8   ar
    11     8     9   ar
    12     9    10   ar
    13    10    11   ar
    14     4     5   ar
    15     5    12    1
    16    12    13   am
    17    13    14    2
    18    13    16    1
    19    16    17   ar
    20    17    18   ar
    21    18    19   ar
    22    19    22    1
    23    22    23   ar
    24    23    24   ar
    25    24    25   ar
    26    25    26   ar
    27    26    27   ar
    28    19    20   ar
    29    20    21   ar
    30     5     6   ar
    31     6     1   ar
    32    11     7   ar
    33    21    16   ar
    34    27    22   ar
    35    12    15    1
@<TRIPOS>MOLECULE
*****
 32 35 0 0 0
SMALL
GASTEIGER

@<TRIPOS>ATOM
      1 C          60.6662   93.1173    1.9934 C.ar    1  UNL1        0.0770
      2 C          62.0185   93.4594    1.4417 C.ar    1  UNL1        0.0080
      3 C          62.1457   93.9941    0.0460 C.ar    1  UNL1        0.0190
      4 C          60.9208   94.1866   -0.7979 C.ar    1  UNL1        0.0789
      5 C          59.5685   93.8445   -0.2462 C.ar    1  UNL1        0.0671
      6 C          59.4413   93.3098    1.1495 C.ar    1  UNL1        0.0226
      7 N          61.0480   94.7213   -2.1936 N.ar    1  UNL1       -0.2852
      8 C          61.0410   96.1686   -2.5874 C.ar    1  UNL1        0.1023
      9 C          61.1933   96.2443   -4.0778 C.ar    1  UNL1        0.1196
     10 N          61.2944   94.8437   -4.6051 N.ar    1  UNL1       -0.2220
     11 C          61.2046   93.9024   -3.4406 C.ar    1  UNL1        0.1829
     12 N          58.3435   94.0370   -1.0902 N.am    1  UNL1       -0.2792
     13 C          57.6804   95.3810   -1.1542 C.2     1  UNL1        0.2526
     14 O          58.2423   96.5324   -0.3741 O.2     1  UNL1       -0.2697
     15 H          57.9747   93.2813   -1.6022 H       1  UNL1        0.1552
     16 C          56.4553   95.5735   -1.9982 C.ar    1  UNL1        0.0919
     17 C          56.4394   95.0906   -3.4182 C.ar    1  UNL1        0.1066
     18 N          55.2144   95.2831   -4.2621 N.ar    1  UNL1       -0.2249
     19 C          54.0053   95.9586   -3.6860 C.ar    1  UNL1        0.1623
     20 N          54.0213   96.4415   -2.2660 N.ar    1  UNL1       -0.2249
     21 C          55.2463   96.2490   -1.4221 C.ar    1  UNL1        0.1066
     22 C          52.7803   96.1511   -4.5300 C.ar    1  UNL1        0.0358
     23 C          51.4216   96.1351   -3.8946 C.ar    1  UNL1        0.0030
     24 C          50.1967   96.3276   -4.7386 C.ar    1  UNL1        0.0001
     25 C          50.3304   96.5362   -6.2180 C.ar    1  UNL1        0.0000
     26 C          51.6890   96.5522   -6.8534 C.ar    1  UNL1        0.0001
     27 C          52.9140   96.3597   -6.0094 C.ar    1  UNL1        0.0030
     28 C          60.5390   92.5827    3.3891 C.2     1  UNL1        0.3412
     29 O          59.2336   92.6953    4.1193 O.2     1  UNL1       -0.2449
     30 O          61.7171   91.9354    4.0547 O.3     1  UNL1       -0.4454
     31 C          63.8308   90.6615    3.2423 C.3     1  UNL1        0.0513
     32 C          62.3458   90.7166    3.4468 C.3     1  UNL1        0.2089
@<TRIPOS>BOND
     1    31    32    1
     2    32    30    1
     3    30    28    1
     4    28    29    2
     5    28     1    1
     6     1     2   ar
     7     2     3   ar
     8     3     4   ar
     9     4     7    1
    10     7     8   ar
    11     8     9   ar
    12     9    10   ar
    13    10    11   ar
    14     4     5   ar
    15     5    12    1
    16    12    13   am
    17    13    14    2
    18    13    16    1
    19    16    17   ar
    20    17    18   ar
    21    18    19   ar
    22    19    22    1
    23    22    23   ar
    24    23    24   ar
    25    24    25   ar
    26    25    26   ar
    27    26    27   ar
    28    19    20   ar
    29    20    21   ar
    30     5     6   ar
    31     6     1   ar
    32    11     7   ar
    33    21    16   ar
    34    27    22   ar
    35    12    15    1
