@<TRIPOS>MOLECULE
*****
 30 34 0 0 0
SMALL
GASTEIGER

@<TRIPOS>ATOM
      1 O          61.9787   85.5159   10.2707 O.2     1  UNL1       -0.2698
      2 C          62.6032   84.9067   11.4909 C.2     1  UNL1        0.2506
      3 N          63.2093   85.7877   12.5426 N.am    1  UNL1       -0.2556
      4 C          63.8659   85.3249   13.8094 C.3     1  UNL1        0.1172
      5 C          64.3277   86.5375   14.5620 C.3     1  UNL1        0.1172
      6 N          63.9565   87.7498   13.7603 N.am    1  UNL1       -0.2556
      7 C          64.0124   89.2484   13.7300 C.2     1  UNL1        0.2504
      8 O          64.6185   90.1296   14.7818 O.2     1  UNL1       -0.2699
      9 C          63.3559   89.7113   12.4632 C.ar    1  UNL1        0.0530
     10 C          63.1188   91.0802   11.8978 C.ar    1  UNL1        0.0043
     11 C          62.4200   91.2366   10.5798 C.ar    1  UNL1        0.0001
     12 C          61.9583   90.0240    9.8272 C.ar    1  UNL1       -0.0002
     13 C          62.1953   88.6550   10.3926 C.ar    1  UNL1       -0.0006
     14 C          62.8941   88.4987   11.7106 C.ar    1  UNL1        0.0199
     15 C          63.2653   87.2865   12.5123 C.3     1  UNL1        0.1626
     16 C          62.6216   83.4162   11.6592 C.ar    1  UNL1        0.0560
     17 C          63.2036   82.5472   10.5840 C.ar    1  UNL1        0.0070
     18 C          63.2219   81.0567   10.7523 C.ar    1  UNL1        0.0321
     19 C          62.6583   80.4354   11.9959 C.ar    1  UNL1        0.1674
     20 F          62.6766   78.9450   12.1643 F       1  UNL1       -0.2018
     21 C          62.0763   81.3045   13.0711 C.ar    1  UNL1        0.1675
     22 F          61.5127   80.6833   14.3146 F       1  UNL1       -0.2018
     23 C          62.0580   82.7949   12.9027 C.ar    1  UNL1        0.0365
     24 C          62.5741   86.8230   11.2642 C.ar    1  UNL1        0.0155
     25 C          61.0767   86.7476   11.2201 C.ar    1  UNL1        0.0001
     26 C          60.3856   86.2842    9.9721 C.ar    1  UNL1        0.0112
     27 C          61.1919   85.8962    8.7682 C.ar    1  UNL1        0.0577
     28 CL         60.5008   85.4328    7.5202 Cl      1  UNL1       -0.0822
     29 C          62.6893   85.9717    8.8124 C.ar    1  UNL1        0.0112
     30 C          63.3804   86.4351   10.0604 C.ar    1  UNL1        0.0001
@<TRIPOS>BOND
     1     1     2    2
     2     2    16    1
     3    16    17   ar
     4    17    18   ar
     5    18    19   ar
     6    19    20    1
     7    19    21   ar
     8    21    22    1
     9    21    23   ar
    10     2     3   am
    11     3     4    1
    12     4     5    1
    13     5     6    1
    14     6     7   am
    15     7     8    2
    16     7     9    1
    17     9    10   ar
    18    10    11   ar
    19    11    12   ar
    20    12    13   ar
    21    13    14   ar
    22    14    15    1
    23    15    24    1
    24    24    25   ar
    25    25    26   ar
    26    26    27   ar
    27    27    28    1
    28    27    29   ar
    29    29    30   ar
    30    23    16   ar
    31    15     3    1
    32    30    24   ar
    33    15     6    1
    34    14     9   ar
@<TRIPOS>MOLECULE
*****
 30 34 0 0 0
SMALL
GASTEIGER

@<TRIPOS>ATOM
      1 O          61.9824   85.5180   10.3687 O.2     1  UNL1       -0.2698
      2 C          62.5944   84.9282   11.6046 C.2     1  UNL1        0.2506
      3 N          63.2091   85.8246   12.6382 N.am    1  UNL1       -0.2556
      4 C          63.8550   85.3818   13.9176 C.3     1  UNL1        0.1172
      5 C          64.3309   86.6048   14.6441 C.3     1  UNL1        0.1172
      6 N          63.9790   87.8035   13.8138 N.am    1  UNL1       -0.2556
      7 C          64.0557   89.3001   13.7496 C.2     1  UNL1        0.2504
      8 O          64.6703   90.1966   14.7833 O.2     1  UNL1       -0.2699
      9 C          63.4097   89.7430   12.4703 C.ar    1  UNL1        0.0530
     10 C          63.1934   91.1018   11.8731 C.ar    1  UNL1        0.0043
     11 C          62.5011   91.2376   10.5493 C.ar    1  UNL1        0.0001
     12 C          62.0253   90.0147    9.8228 C.ar    1  UNL1       -0.0002
     13 C          62.2416   88.6558   10.4200 C.ar    1  UNL1       -0.0006
     14 C          62.9339   88.5200   11.7438 C.ar    1  UNL1        0.0199
     15 C          63.2857   87.3213   12.5741 C.3     1  UNL1        0.1626
     16 C          62.5918   83.4418   11.8068 C.ar    1  UNL1        0.0560
     17 C          62.2209   82.8672   13.1417 C.ar    1  UNL1        0.0070
     18 C          62.2182   81.3808   13.3439 C.ar    1  UNL1        0.0321
     19 C          62.5865   80.4692   12.2110 C.ar    1  UNL1        0.1674
     20 F          62.5839   78.9829   12.4131 F       1  UNL1       -0.2018
     21 C          62.9574   81.0439   10.8760 C.ar    1  UNL1        0.1675
     22 F          63.3257   80.1323    9.7431 F       1  UNL1       -0.2018
     23 C          62.9600   82.5302   10.6739 C.ar    1  UNL1        0.0365
     24 C          62.5924   86.8391   11.3344 C.ar    1  UNL1        0.0155
     25 C          63.3975   86.3994   10.1476 C.ar    1  UNL1        0.0001
     26 C          62.7042   85.9172    8.9080 C.ar    1  UNL1        0.0112
     27 C          61.2057   85.8747    8.8551 C.ar    1  UNL1        0.0577
     28 CL         60.5124   85.3925    7.6154 Cl      1  UNL1       -0.0822
     29 C          60.4006   86.3144   10.0418 C.ar    1  UNL1        0.0112
     30 C          61.0940   86.7966   11.2815 C.ar    1  UNL1        0.0001
@<TRIPOS>BOND
     1     1     2    2
     2     2    16    1
     3    16    17   ar
     4    17    18   ar
     5    18    19   ar
     6    19    20    1
     7    19    21   ar
     8    21    22    1
     9    21    23   ar
    10     2     3   am
    11     3     4    1
    12     4     5    1
    13     5     6    1
    14     6     7   am
    15     7     8    2
    16     7     9    1
    17     9    10   ar
    18    10    11   ar
    19    11    12   ar
    20    12    13   ar
    21    13    14   ar
    22    14    15    1
    23    15    24    1
    24    24    25   ar
    25    25    26   ar
    26    26    27   ar
    27    27    28    1
    28    27    29   ar
    29    29    30   ar
    30    23    16   ar
    31    15     3    1
    32    30    24   ar
    33    15     6    1
    34    14     9   ar
@<TRIPOS>MOLECULE
*****
 30 34 0 0 0
SMALL
GASTEIGER

@<TRIPOS>ATOM
      1 O          63.4607   89.5870   14.0637 O.2     1  UNL1       -0.2698
      2 C          63.1670   89.9250   12.6322 C.2     1  UNL1        0.2506
      3 N          63.8861   91.0608   11.9669 N.am    1  UNL1       -0.2556
      4 C          63.6985   91.5136   10.5492 C.3     1  UNL1        0.1172
      5 C          64.6156   92.6759   10.3086 C.3     1  UNL1        0.1172
      6 N          65.3701   92.9415   11.5776 N.am    1  UNL1       -0.2556
      7 C          66.4032   93.8239   12.2132 C.2     1  UNL1        0.2504
      8 O          67.1224   94.9598   11.5479 O.2     1  UNL1       -0.2699
      9 C          66.5909   93.3711   13.6309 C.ar    1  UNL1        0.0530
     10 C          67.4783   93.8670   14.7337 C.ar    1  UNL1        0.0043
     11 C          67.4487   93.2006   16.0772 C.ar    1  UNL1        0.0001
     12 C          66.5316   92.0383   16.3178 C.ar    1  UNL1       -0.0002
     13 C          65.6441   91.5424   15.2149 C.ar    1  UNL1       -0.0006
     14 C          65.6737   92.2088   13.8715 C.ar    1  UNL1        0.0199
     15 C          64.9193   91.9433   12.6025 C.3     1  UNL1        0.1626
     16 C          62.1539   89.1270   11.8659 C.ar    1  UNL1        0.0560
     17 C          60.7907   89.6965   11.6071 C.ar    1  UNL1        0.0070
     18 C          59.7776   88.8985   10.8408 C.ar    1  UNL1        0.0321
     19 C          60.1281   87.5310   10.3333 C.ar    1  UNL1        0.1674
     20 F          59.1151   86.7331    9.5671 F       1  UNL1       -0.2018
     21 C          61.4915   86.9617   10.5922 C.ar    1  UNL1        0.1675
     22 F          61.8419   85.5943   10.0848 F       1  UNL1       -0.2018
     23 C          62.5044   87.7596   11.3585 C.ar    1  UNL1        0.0365
     24 C          64.4684   90.9450   13.6274 C.ar    1  UNL1        0.0155
     25 C          65.0930   89.5820   13.6723 C.ar    1  UNL1        0.0001
     26 C          64.6421   88.5838   14.6971 C.ar    1  UNL1        0.0112
     27 C          63.5667   88.9487   15.6770 C.ar    1  UNL1        0.0577
     28 CL         63.1158   87.9505   16.7019 Cl      1  UNL1       -0.0822
     29 C          62.9421   90.3117   15.6321 C.ar    1  UNL1        0.0112
     30 C          63.3930   91.3099   14.6073 C.ar    1  UNL1        0.0001
@<TRIPOS>BOND
     1     1     2    2
     2     2    16    1
     3    16    17   ar
     4    17    18   ar
     5    18    19   ar
     6    19    20    1
     7    19    21   ar
     8    21    22    1
     9    21    23   ar
    10     2     3   am
    11     3     4    1
    12     4     5    1
    13     5     6    1
    14     6     7   am
    15     7     8    2
    16     7     9    1
    17     9    10   ar
    18    10    11   ar
    19    11    12   ar
    20    12    13   ar
    21    13    14   ar
    22    14    15    1
    23    15    24    1
    24    24    25   ar
    25    25    26   ar
    26    26    27   ar
    27    27    28    1
    28    27    29   ar
    29    29    30   ar
    30    23    16   ar
    31    15     3    1
    32    30    24   ar
    33    15     6    1
    34    14     9   ar
@<TRIPOS>MOLECULE
*****
 30 34 0 0 0
SMALL
GASTEIGER

@<TRIPOS>ATOM
      1 O          63.0149   94.3829    1.4055 O.2     1  UNL1       -0.2698
      2 C          61.8103   93.4994    1.2700 C.2     1  UNL1        0.2506
      3 N          61.1103   93.3832   -0.0514 N.am    1  UNL1       -0.2556
      4 C          59.9005   92.5438   -0.3376 C.3     1  UNL1        0.1172
      5 C          59.5395   92.7279   -1.7818 C.3     1  UNL1        0.1172
      6 N          60.5262   93.6812   -2.3883 N.am    1  UNL1       -0.2556
      7 C          60.9129   94.3841   -3.6557 C.2     1  UNL1        0.2504
      8 O          60.2128   94.2680   -4.9772 O.2     1  UNL1       -0.2699
      9 C          62.1227   95.2235   -3.3696 C.ar    1  UNL1        0.0530
     10 C          62.9422   96.1318   -4.2376 C.ar    1  UNL1        0.0043
     11 C          64.1227   96.8559   -3.6614 C.ar    1  UNL1        0.0001
     12 C          64.4836   96.6718   -2.2172 C.ar    1  UNL1       -0.0002
     13 C          63.6641   95.7635   -1.3492 C.ar    1  UNL1       -0.0006
     14 C          62.4836   95.0394   -1.9254 C.ar    1  UNL1        0.0199
     15 C          61.4970   94.0862   -1.3189 C.3     1  UNL1        0.1626
     16 C          61.3059   92.7319    2.4560 C.ar    1  UNL1        0.0560
     17 C          62.2095   91.7663    3.1640 C.ar    1  UNL1        0.0070
     18 C          61.7050   90.9988    4.3500 C.ar    1  UNL1        0.0321
     19 C          60.2971   91.1971    4.8281 C.ar    1  UNL1        0.1674
     20 F          59.7926   90.4297    6.0141 F       1  UNL1       -0.2018
     21 C          59.3936   92.1627    4.1200 C.ar    1  UNL1        0.1675
     22 F          57.9857   92.3610    4.5980 F       1  UNL1       -0.2018
     23 C          59.8980   92.9301    2.9340 C.ar    1  UNL1        0.0365
     24 C          62.4677   94.4912   -0.2495 C.ar    1  UNL1        0.0155
     25 C          62.1884   95.6954    0.6001 C.ar    1  UNL1        0.0001
     26 C          63.1590   96.1004    1.6695 C.ar    1  UNL1        0.0112
     27 C          64.4092   95.3011    1.8893 C.ar    1  UNL1        0.0577
     28 CL         65.3800   95.7061    2.9587 Cl      1  UNL1       -0.0822
     29 C          64.6886   94.0969    1.0398 C.ar    1  UNL1        0.0112
     30 C          63.7178   93.6920   -0.0296 C.ar    1  UNL1        0.0001
@<TRIPOS>BOND
     1     1     2    2
     2     2    16    1
     3    16    17   ar
     4    17    18   ar
     5    18    19   ar
     6    19    20    1
     7    19    21   ar
     8    21    22    1
     9    21    23   ar
    10     2     3   am
    11     3     4    1
    12     4     5    1
    13     5     6    1
    14     6     7   am
    15     7     8    2
    16     7     9    1
    17     9    10   ar
    18    10    11   ar
    19    11    12   ar
    20    12    13   ar
    21    13    14   ar
    22    14    15    1
    23    15    24    1
    24    24    25   ar
    25    25    26   ar
    26    26    27   ar
    27    27    28    1
    28    27    29   ar
    29    29    30   ar
    30    23    16   ar
    31    15     3    1
    32    30    24   ar
    33    15     6    1
    34    14     9   ar
@<TRIPOS>MOLECULE
*****
 30 34 0 0 0
SMALL
GASTEIGER

@<TRIPOS>ATOM
      1 O          62.5444   94.3316   -0.8181 O.2     1  UNL1       -0.2698
      2 C          61.3539   93.5404   -0.3636 C.2     1  UNL1        0.2506
      3 N          60.2033   93.3129   -1.2986 N.am    1  UNL1       -0.2556
      4 C          58.9522   92.5463   -0.9870 C.3     1  UNL1        0.1172
      5 C          58.0774   92.5716   -2.2052 C.3     1  UNL1        0.1172
      6 N          58.7879   93.3538   -3.2698 N.am    1  UNL1       -0.2556
      7 C          58.6864   93.8529   -4.6807 C.2     1  UNL1        0.2504
      8 O          57.5357   93.6254   -5.6158 O.2     1  UNL1       -0.2699
      9 C          59.9374   94.6195   -4.9924 C.ar    1  UNL1        0.0530
     10 C          60.3931   95.3373   -6.2282 C.ar    1  UNL1        0.0043
     11 C          61.7235   96.0298   -6.2456 C.ar    1  UNL1        0.0001
     12 C          62.5983   96.0045   -5.0274 C.ar    1  UNL1       -0.0002
     13 C          62.1426   95.2867   -3.7917 C.ar    1  UNL1       -0.0006
     14 C          60.8122   94.5942   -3.7742 C.ar    1  UNL1        0.0199
     15 C          60.1017   93.8120   -2.7096 C.3     1  UNL1        0.1626
     16 C          61.3139   92.9768    1.0259 C.ar    1  UNL1        0.0560
     17 C          60.1117   93.2047    1.8934 C.ar    1  UNL1        0.0070
     18 C          60.0718   92.6411    3.2830 C.ar    1  UNL1        0.0321
     19 C          61.2342   91.8495    3.8049 C.ar    1  UNL1        0.1674
     20 F          61.1944   91.2858    5.1944 F       1  UNL1       -0.2018
     21 C          62.4365   91.6216    2.9373 C.ar    1  UNL1        0.1675
     22 F          63.5988   90.8300    3.4591 F       1  UNL1       -0.2018
     23 C          62.4763   92.1852    1.5478 C.ar    1  UNL1        0.0365
     24 C          61.4156   94.2701   -2.1492 C.ar    1  UNL1        0.0155
     25 C          61.5112   95.5915   -1.4459 C.ar    1  UNL1        0.0001
     26 C          62.8249   96.0496   -0.8856 C.ar    1  UNL1        0.0112
     27 C          64.0432   95.1863   -1.0286 C.ar    1  UNL1        0.0577
     28 CL         65.3571   95.6444   -0.4684 Cl      1  UNL1       -0.0822
     29 C          63.9477   93.8649   -1.7320 C.ar    1  UNL1        0.0112
     30 C          62.6338   93.4068   -2.2923 C.ar    1  UNL1        0.0001
@<TRIPOS>BOND
     1     1     2    2
     2     2    16    1
     3    16    17   ar
     4    17    18   ar
     5    18    19   ar
     6    19    20    1
     7    19    21   ar
     8    21    22    1
     9    21    23   ar
    10     2     3   am
    11     3     4    1
    12     4     5    1
    13     5     6    1
    14     6     7   am
    15     7     8    2
    16     7     9    1
    17     9    10   ar
    18    10    11   ar
    19    11    12   ar
    20    12    13   ar
    21    13    14   ar
    22    14    15    1
    23    15    24    1
    24    24    25   ar
    25    25    26   ar
    26    26    27   ar
    27    27    28    1
    28    27    29   ar
    29    29    30   ar
    30    23    16   ar
    31    15     3    1
    32    30    24   ar
    33    15     6    1
    34    14     9   ar
@<TRIPOS>MOLECULE
*****
 30 34 0 0 0
SMALL
GASTEIGER

@<TRIPOS>ATOM
      1 O          59.8132   93.9528    0.7060 O.2     1  UNL1       -0.2698
      2 C          59.4010   94.5932   -0.5863 C.2     1  UNL1        0.2506
      3 N          60.4366   95.1969   -1.4879 N.am    1  UNL1       -0.2556
      4 C          60.1766   95.8681   -2.8040 C.3     1  UNL1        0.1172
      5 C          61.4933   96.3215   -3.3613 C.3     1  UNL1        0.1172
      6 N          62.5672   95.9305   -2.3897 N.am    1  UNL1       -0.2556
      7 C          64.0446   95.9690   -2.1336 C.2     1  UNL1        0.2504
      8 O          65.0803   96.5727   -3.0353 O.2     1  UNL1       -0.2699
      9 C          64.3047   95.2979   -0.8176 C.ar    1  UNL1        0.0530
     10 C          65.5704   95.0410   -0.0548 C.ar    1  UNL1        0.0043
     11 C          65.5193   94.3307    1.2654 C.ar    1  UNL1        0.0001
     12 C          64.2026   93.8774    1.8227 C.ar    1  UNL1       -0.0002
     13 C          62.9369   94.1343    1.0599 C.ar    1  UNL1       -0.0006
     14 C          62.9880   94.8445   -0.2603 C.ar    1  UNL1        0.0199
     15 C          61.9141   95.2355   -1.2319 C.3     1  UNL1        0.1626
     16 C          57.9531   94.6299   -0.9768 C.ar    1  UNL1        0.0560
     17 C          57.2091   95.9323   -0.9763 C.ar    1  UNL1        0.0070
     18 C          55.7612   95.9690   -1.3668 C.ar    1  UNL1        0.0321
     19 C          55.0576   94.7032   -1.7579 C.ar    1  UNL1        0.1674
     20 F          53.6098   94.7399   -2.1484 F       1  UNL1       -0.2018
     21 C          55.8018   93.4009   -1.7583 C.ar    1  UNL1        0.1675
     22 F          55.0982   92.1351   -2.1494 F       1  UNL1       -0.2018
     23 C          57.2496   93.3642   -1.3678 C.ar    1  UNL1        0.0365
     24 C          61.2610   94.5405   -0.0740 C.ar    1  UNL1        0.0155
     25 C          60.8331   95.3278    1.1289 C.ar    1  UNL1        0.0001
     26 C          60.1800   94.6329    2.2866 C.ar    1  UNL1        0.0112
     27 C          59.9548   93.1505    2.2414 C.ar    1  UNL1        0.0577
     28 CL         59.3017   92.4555    3.3992 Cl      1  UNL1       -0.0822
     29 C          60.3827   92.3632    1.0385 C.ar    1  UNL1        0.0112
     30 C          61.0358   93.0583   -0.1192 C.ar    1  UNL1        0.0001
@<TRIPOS>BOND
     1     1     2    2
     2     2    16    1
     3    16    17   ar
     4    17    18   ar
     5    18    19   ar
     6    19    20    1
     7    19    21   ar
     8    21    22    1
     9    21    23   ar
    10     2     3   am
    11     3     4    1
    12     4     5    1
    13     5     6    1
    14     6     7   am
    15     7     8    2
    16     7     9    1
    17     9    10   ar
    18    10    11   ar
    19    11    12   ar
    20    12    13   ar
    21    13    14   ar
    22    14    15    1
    23    15    24    1
    24    24    25   ar
    25    25    26   ar
    26    26    27   ar
    27    27    28    1
    28    27    29   ar
    29    29    30   ar
    30    23    16   ar
    31    15     3    1
    32    30    24   ar
    33    15     6    1
    34    14     9   ar
@<TRIPOS>MOLECULE
*****
 30 34 0 0 0
SMALL
GASTEIGER

@<TRIPOS>ATOM
      1 O          60.2204   93.6711    0.2702 O.2     1  UNL1       -0.2698
      2 C          61.2458   93.4582    1.3441 C.2     1  UNL1        0.2506
      3 N          62.6207   94.0387    1.1940 N.am    1  UNL1       -0.2556
      4 C          63.7446   93.9099    2.1791 C.3     1  UNL1        0.1172
      5 C          64.9317   94.6415    1.6263 C.3     1  UNL1        0.1172
      6 N          64.5415   95.2224    0.2995 N.am    1  UNL1       -0.2556
      7 C          65.0340   96.0336   -0.8621 C.2     1  UNL1        0.2504
      8 O          66.4090   96.6141   -1.0123 O.2     1  UNL1       -0.2699
      9 C          63.9102   96.1624   -1.8472 C.ar    1  UNL1        0.0530
     10 C          63.8144   96.8514   -3.1762 C.ar    1  UNL1        0.0043
     11 C          62.5316   96.8087   -3.9523 C.ar    1  UNL1        0.0001
     12 C          61.3445   96.0771   -3.3995 C.ar    1  UNL1       -0.0002
     13 C          61.4402   95.3882   -2.0706 C.ar    1  UNL1       -0.0006
     14 C          62.7231   95.4308   -1.2944 C.ar    1  UNL1        0.0199
     15 C          63.1133   94.8499    0.0323 C.3     1  UNL1        0.1626
     16 C          60.8962   92.6648    2.5682 C.ar    1  UNL1        0.0560
     17 C          61.9195   91.7666    3.1974 C.ar    1  UNL1        0.0070
     18 C          61.5698   90.9733    4.4215 C.ar    1  UNL1        0.0321
     19 C          60.1967   91.0782    5.0164 C.ar    1  UNL1        0.1674
     20 F          59.8470   90.2849    6.2404 F       1  UNL1       -0.2018
     21 C          59.1734   91.9765    4.3871 C.ar    1  UNL1        0.1675
     22 F          57.8004   92.0814    4.9819 F       1  UNL1       -0.2018
     23 C          59.5231   92.7698    3.1630 C.ar    1  UNL1        0.0365
     24 C          61.6850   94.4773   -0.2349 C.ar    1  UNL1        0.0155
     25 C          61.3650   93.2026   -0.9577 C.ar    1  UNL1        0.0001
     26 C          59.9368   92.8300   -1.2249 C.ar    1  UNL1        0.0112
     27 C          58.8286   93.7323   -0.7691 C.ar    1  UNL1        0.0577
     28 CL         57.4003   93.3598   -1.0363 Cl      1  UNL1       -0.0822
     29 C          59.1485   95.0071   -0.0463 C.ar    1  UNL1        0.0112
     30 C          60.5768   95.3796    0.2209 C.ar    1  UNL1        0.0001
@<TRIPOS>BOND
     1     1     2    2
     2     2    16    1
     3    16    17   ar
     4    17    18   ar
     5    18    19   ar
     6    19    20    1
     7    19    21   ar
     8    21    22    1
     9    21    23   ar
    10     2     3   am
    11     3     4    1
    12     4     5    1
    13     5     6    1
    14     6     7   am
    15     7     8    2
    16     7     9    1
    17     9    10   ar
    18    10    11   ar
    19    11    12   ar
    20    12    13   ar
    21    13    14   ar
    22    14    15    1
    23    15    24    1
    24    24    25   ar
    25    25    26   ar
    26    26    27   ar
    27    27    28    1
    28    27    29   ar
    29    29    30   ar
    30    23    16   ar
    31    15     3    1
    32    30    24   ar
    33    15     6    1
    34    14     9   ar
@<TRIPOS>MOLECULE
*****
 30 34 0 0 0
SMALL
GASTEIGER

@<TRIPOS>ATOM
      1 O          60.4384   93.5449    0.1914 O.2     1  UNL1       -0.2698
      2 C          60.2186   93.6162   -1.2907 C.2     1  UNL1        0.2506
      3 N          61.2254   94.3016   -2.1660 N.am    1  UNL1       -0.2556
      4 C          61.1416   94.4509   -3.6563 C.3     1  UNL1        0.1172
      5 C          62.3573   95.1997   -4.1162 C.3     1  UNL1        0.1172
      6 N          63.1924   95.5131   -2.9103 N.am    1  UNL1       -0.2556
      7 C          64.4598   96.1696   -2.4492 C.2     1  UNL1        0.2504
      8 O          65.4667   96.8551   -3.3246 O.2     1  UNL1       -0.2699
      9 C          64.5437   96.0204   -0.9590 C.ar    1  UNL1        0.0530
     10 C          65.5699   96.4695    0.0386 C.ar    1  UNL1        0.0043
     11 C          65.3804   96.1699    1.4960 C.ar    1  UNL1        0.0001
     12 C          64.1648   95.4211    1.9560 C.ar    1  UNL1       -0.0002
     13 C          63.1386   94.9719    0.9584 C.ar    1  UNL1       -0.0006
     14 C          63.3280   95.2716   -0.4990 C.ar    1  UNL1        0.0199
     15 C          62.4929   94.9581   -1.7050 C.3     1  UNL1        0.1626
     16 C          58.9919   93.0019   -1.8973 C.ar    1  UNL1        0.0560
     17 C          57.8277   92.6346   -1.0257 C.ar    1  UNL1        0.0070
     18 C          56.6010   92.0204   -1.6323 C.ar    1  UNL1        0.0321
     19 C          56.5386   91.7735   -3.1106 C.ar    1  UNL1        0.1674
     20 F          55.3119   91.1593   -3.7173 F       1  UNL1       -0.2018
     21 C          57.7028   92.1408   -3.9822 C.ar    1  UNL1        0.1675
     22 F          57.6404   91.8940   -5.4604 F       1  UNL1       -0.2018
     23 C          58.9295   92.7551   -3.3755 C.ar    1  UNL1        0.0365
     24 C          61.7934   94.4031   -0.4997 C.ar    1  UNL1        0.0155
     25 C          62.0748   93.0004   -0.0488 C.ar    1  UNL1        0.0001
     26 C          61.3753   92.4454    1.1563 C.ar    1  UNL1        0.0112
     27 C          60.3943   93.2930    1.9107 C.ar    1  UNL1        0.0577
     28 CL         59.6948   92.7380    3.1159 Cl      1  UNL1       -0.0822
     29 C          60.1128   94.6957    1.4599 C.ar    1  UNL1        0.0112
     30 C          60.8124   95.2507    0.2546 C.ar    1  UNL1        0.0001
@<TRIPOS>BOND
     1     1     2    2
     2     2    16    1
     3    16    17   ar
     4    17    18   ar
     5    18    19   ar
     6    19    20    1
     7    19    21   ar
     8    21    22    1
     9    21    23   ar
    10     2     3   am
    11     3     4    1
    12     4     5    1
    13     5     6    1
    14     6     7   am
    15     7     8    2
    16     7     9    1
    17     9    10   ar
    18    10    11   ar
    19    11    12   ar
    20    12    13   ar
    21    13    14   ar
    22    14    15    1
    23    15    24    1
    24    24    25   ar
    25    25    26   ar
    26    26    27   ar
    27    27    28    1
    28    27    29   ar
    29    29    30   ar
    30    23    16   ar
    31    15     3    1
    32    30    24   ar
    33    15     6    1
    34    14     9   ar
@<TRIPOS>MOLECULE
*****
 30 34 0 0 0
SMALL
GASTEIGER

@<TRIPOS>ATOM
      1 O          60.8859   93.9352   -0.2127 O.2     1  UNL1       -0.2698
      2 C          61.7095   94.5335   -1.3143 C.2     1  UNL1        0.2506
      3 N          61.1836   94.5514   -2.7189 N.am    1  UNL1       -0.2556
      4 C          61.8895   95.1125   -3.9177 C.3     1  UNL1        0.1172
      5 C          61.0016   94.9192   -5.1111 C.3     1  UNL1        0.1172
      6 N          59.7469   94.2386   -4.6500 N.am    1  UNL1       -0.2556
      7 C          58.4228   93.6984   -5.1026 C.2     1  UNL1        0.2504
      8 O          57.8969   93.7163   -6.5072 O.2     1  UNL1       -0.2699
      9 C          57.7168   93.1373   -3.9039 C.ar    1  UNL1        0.0530
     10 C          56.3803   92.4753   -3.7450 C.ar    1  UNL1        0.0043
     11 C          55.9316   92.0067   -2.3926 C.ar    1  UNL1        0.0001
     12 C          56.8195   92.2000   -1.1991 C.ar    1  UNL1       -0.0002
     13 C          58.1560   92.8620   -1.3581 C.ar    1  UNL1       -0.0006
     14 C          58.6047   93.3306   -2.7105 C.ar    1  UNL1        0.0199
     15 C          59.8594   94.0112   -3.1716 C.3     1  UNL1        0.1626
     16 C          63.0590   95.1140   -1.0112 C.ar    1  UNL1        0.0560
     17 C          63.9241   95.6227   -2.1260 C.ar    1  UNL1        0.0070
     18 C          65.2737   96.2032   -1.8229 C.ar    1  UNL1        0.0321
     19 C          65.7580   96.2749   -0.4050 C.ar    1  UNL1        0.1674
     20 F          67.1075   96.8554   -0.1018 F       1  UNL1       -0.2018
     21 C          64.8928   95.7662    0.7098 C.ar    1  UNL1        0.1675
     22 F          65.3771   95.8379    2.1276 F       1  UNL1       -0.2018
     23 C          63.5433   95.1857    0.4066 C.ar    1  UNL1        0.0365
     24 C          59.9718   93.7839   -1.6931 C.ar    1  UNL1        0.0155
     25 C          59.4738   94.8244   -0.7343 C.ar    1  UNL1        0.0001
     26 C          59.5862   94.5971    0.7441 C.ar    1  UNL1        0.0112
     27 C          60.1968   93.3293    1.2636 C.ar    1  UNL1        0.0577
     28 CL         60.3093   93.1020    2.7420 Cl      1  UNL1       -0.0822
     29 C          60.6949   92.2889    0.3048 C.ar    1  UNL1        0.0112
     30 C          60.5824   92.5162   -1.1736 C.ar    1  UNL1        0.0001
@<TRIPOS>BOND
     1     1     2    2
     2     2    16    1
     3    16    17   ar
     4    17    18   ar
     5    18    19   ar
     6    19    20    1
     7    19    21   ar
     8    21    22    1
     9    21    23   ar
    10     2     3   am
    11     3     4    1
    12     4     5    1
    13     5     6    1
    14     6     7   am
    15     7     8    2
    16     7     9    1
    17     9    10   ar
    18    10    11   ar
    19    11    12   ar
    20    12    13   ar
    21    13    14   ar
    22    14    15    1
    23    15    24    1
    24    24    25   ar
    25    25    26   ar
    26    26    27   ar
    27    27    28    1
    28    27    29   ar
    29    29    30   ar
    30    23    16   ar
    31    15     3    1
    32    30    24   ar
    33    15     6    1
    34    14     9   ar
