@<TRIPOS>MOLECULE
*****
 28 30 0 0 0
SMALL
GASTEIGER

@<TRIPOS>ATOM
      1 C          61.4925   88.7888    9.9353 C.ar    1  UNL1        0.0564
      2 C          60.2342   88.8110    9.1191 C.ar    1  UNL1        0.0056
      3 C          59.8940   87.6491    8.2336 C.ar    1  UNL1        0.0146
      4 C          60.8121   86.4650    8.1642 C.ar    1  UNL1        0.0915
      5 CL         60.4719   85.3031    7.2785 Cl      1  UNL1       -0.0791
      6 C          62.0704   86.4427    8.9803 C.ar    1  UNL1        0.1489
      7 C          62.4106   87.6046    9.8658 C.ar    1  UNL1        0.0423
      8 N          63.2128   90.0774   11.3947 N.am    1  UNL1       -0.2943
      9 C          61.8327   89.9507   10.8209 C.2     1  UNL1        0.2463
     10 O          60.7929   90.9858   11.1326 O.2     1  UNL1       -0.2701
     11 H          63.8953   89.3980   11.1901 H       1  UNL1        0.1501
     12 C          63.5530   91.2393   12.2804 C.3     1  UNL1        0.1579
     13 C          66.6369   93.1233   10.8642 C.ar    1  UNL1        0.1000
     14 C          65.4454   92.2320   10.6747 C.ar    1  UNL1        0.0553
     15 C          64.7821   92.0550   12.0083 C.ar    1  UNL1        0.1738
     16 O          65.5636   92.8370   13.0221 O.2     1  UNL1       -0.3563
     17 N          66.7099   93.4973   12.3151 N.ar    1  UNL1       -0.0817
     18 C          67.5615   94.9806    9.3003 C.3     1  UNL1        0.0064
     19 C          67.5883   93.5635    9.7913 C.3     1  UNL1        0.0436
     20 C          68.5665   92.5866    9.2095 C.3     1  UNL1        0.0064
     21 O          62.9886   85.2586    8.9108 O.3     1  UNL1       -0.4782
     22 C          63.1728   84.3809   10.1132 C.3     1  UNL1        0.1687
     23 C          62.4534   84.6980   11.3907 C.3     1  UNL1        0.0609
     24 C          62.6376   83.8204   12.5930 C.3     1  UNL1        0.0758
     25 N          63.5413   82.6255   12.5180 N.3     1  UNL1       -0.2713
     26 C          63.7256   81.7478   13.7204 C.3     1  UNL1        0.0896
     27 C          64.2608   82.3084   11.2406 C.3     1  UNL1        0.0758
     28 C          64.0766   83.1861   10.0381 C.3     1  UNL1        0.0609
@<TRIPOS>BOND
     1    18    19    1
     2    19    20    1
     3    19    13    1
     4    13    14   ar
     5    14    15   ar
     6    15    12    1
     7    12     8    1
     8     8     9   am
     9     9    10    2
    10     9     1    1
    11     1     2   ar
    12     2     3   ar
    13     3     4   ar
    14     4     5    1
    15     4     6   ar
    16     6    21    1
    17    21    22    1
    18    22    23    1
    19    23    24    1
    20    24    25    1
    21    25    26    1
    22    25    27    1
    23    27    28    1
    24     6     7   ar
    25    15    16   ar
    26    16    17   ar
    27    17    13   ar
    28     7     1   ar
    29    28    22    1
    30     8    11    1
@<TRIPOS>MOLECULE
*****
 28 30 0 0 0
SMALL
GASTEIGER

@<TRIPOS>ATOM
      1 C          64.1793   89.4968   14.1907 C.ar    1  UNL1        0.0564
      2 C          65.3010   90.4378   14.5162 C.ar    1  UNL1        0.0056
      3 C          65.5950   91.5962   13.6097 C.ar    1  UNL1        0.0146
      4 C          64.7672   91.8136   12.3779 C.ar    1  UNL1        0.0915
      5 CL         65.0612   92.9720   11.4714 Cl      1  UNL1       -0.0791
      6 C          63.6454   90.8725   12.0524 C.ar    1  UNL1        0.1489
      7 C          63.3515   89.7141   12.9588 C.ar    1  UNL1        0.0423
      8 N          64.3406   86.9589   14.7231 N.am    1  UNL1       -0.2943
      9 C          63.8853   88.3383   15.0972 C.2     1  UNL1        0.2463
     10 O          63.1359   88.5593   16.3777 O.2     1  UNL1       -0.2701
     11 H          64.8323   86.8139   13.8826 H       1  UNL1        0.1501
     12 C          64.0465   85.8004   15.6295 C.3     1  UNL1        0.1579
     13 C          63.1839   82.6486   13.5351 C.ar    1  UNL1        0.1000
     14 C          63.8766   83.9702   13.6889 C.ar    1  UNL1        0.0553
     15 C          63.5602   84.5031   15.0549 C.ar    1  UNL1        0.1738
     16 O          62.6719   83.5109   15.7452 O.2     1  UNL1       -0.3563
     17 N          62.4394   82.3647   14.8060 N.ar    1  UNL1       -0.0817
     18 C          63.8225   82.2769   11.0442 C.3     1  UNL1        0.0064
     19 C          63.2281   81.7658   12.3231 C.3     1  UNL1        0.0436
     20 C          62.6778   80.3720   12.3900 C.3     1  UNL1        0.0064
     21 O          62.8176   91.0898   10.8205 O.3     1  UNL1       -0.4782
     22 C          62.0613   89.9454   10.2136 C.3     1  UNL1        0.1687
     23 C          60.6654   90.1542    9.7056 C.3     1  UNL1        0.0609
     24 C          59.9092   89.0098    9.0987 C.3     1  UNL1        0.0758
     25 N          60.5487   87.6566    8.9998 N.3     1  UNL1       -0.2713
     26 C          59.7923   86.5122    8.3928 C.3     1  UNL1        0.0896
     27 C          61.9445   87.4478    9.5077 C.3     1  UNL1        0.0758
     28 C          62.7009   88.5922   10.1147 C.3     1  UNL1        0.0609
@<TRIPOS>BOND
     1    18    19    1
     2    19    20    1
     3    19    13    1
     4    13    14   ar
     5    14    15   ar
     6    15    12    1
     7    12     8    1
     8     8     9   am
     9     9    10    2
    10     9     1    1
    11     1     2   ar
    12     2     3   ar
    13     3     4   ar
    14     4     5    1
    15     4     6   ar
    16     6    21    1
    17    21    22    1
    18    22    23    1
    19    23    24    1
    20    24    25    1
    21    25    26    1
    22    25    27    1
    23    27    28    1
    24     6     7   ar
    25    15    16   ar
    26    16    17   ar
    27    17    13   ar
    28     7     1   ar
    29    28    22    1
    30     8    11    1
@<TRIPOS>MOLECULE
*****
 28 30 0 0 0
SMALL
GASTEIGER

@<TRIPOS>ATOM
      1 C          61.5472   88.5984   10.4703 C.ar    1  UNL1        0.0564
      2 C          60.3336   88.7809    9.6079 C.ar    1  UNL1        0.0056
      3 C          59.9924   87.7562    8.5670 C.ar    1  UNL1        0.0146
      4 C          60.8648   86.5490    8.3886 C.ar    1  UNL1        0.0915
      5 CL         60.5235   85.5243    7.3476 Cl      1  UNL1       -0.0791
      6 C          62.0783   86.3666    9.2510 C.ar    1  UNL1        0.1489
      7 C          62.4196   87.3913   10.2919 C.ar    1  UNL1        0.0423
      8 N          62.6205   89.2140   12.7549 N.am    1  UNL1       -0.2943
      9 C          61.8885   89.6232   11.5113 C.2     1  UNL1        0.2463
     10 O          61.4977   91.0571   11.3085 O.2     1  UNL1       -0.2701
     11 H          62.8770   88.2728   12.8879 H       1  UNL1        0.1501
     12 C          62.9618   90.2387   13.7959 C.3     1  UNL1        0.1579
     13 C          66.4742   91.8674   14.0713 C.ar    1  UNL1        0.1000
     14 C          65.4511   90.8730   14.5346 C.ar    1  UNL1        0.0553
     15 C          64.2291   91.0327   13.6795 C.ar    1  UNL1        0.1738
     16 O          64.4969   92.1257   12.6877 O.2     1  UNL1       -0.3563
     17 N          65.8844   92.6416   12.9298 N.ar    1  UNL1       -0.0817
     18 C          69.0454   92.0517   13.7472 C.3     1  UNL1        0.0064
     19 C          67.8461   92.0547   14.6481 C.3     1  UNL1        0.0436
     20 C          68.0188   92.2449   16.1259 C.3     1  UNL1        0.0064
     21 O          62.9507   85.1595    9.0726 O.3     1  UNL1       -0.4782
     22 C          63.1617   84.2111   10.2154 C.3     1  UNL1        0.1687
     23 C          62.4590   84.4412   11.5206 C.3     1  UNL1        0.0609
     24 C          62.6700   83.4928   12.6633 C.3     1  UNL1        0.0758
     25 N          63.5835   82.3142   12.5010 N.3     1  UNL1       -0.2713
     26 C          63.7945   81.3658   13.6439 C.3     1  UNL1        0.0896
     27 C          64.2861   82.0840   11.1959 C.3     1  UNL1        0.0758
     28 C          64.0752   83.0325   10.0530 C.3     1  UNL1        0.0609
@<TRIPOS>BOND
     1    18    19    1
     2    19    20    1
     3    19    13    1
     4    13    14   ar
     5    14    15   ar
     6    15    12    1
     7    12     8    1
     8     8     9   am
     9     9    10    2
    10     9     1    1
    11     1     2   ar
    12     2     3   ar
    13     3     4   ar
    14     4     5    1
    15     4     6   ar
    16     6    21    1
    17    21    22    1
    18    22    23    1
    19    23    24    1
    20    24    25    1
    21    25    26    1
    22    25    27    1
    23    27    28    1
    24     6     7   ar
    25    15    16   ar
    26    16    17   ar
    27    17    13   ar
    28     7     1   ar
    29    28    22    1
    30     8    11    1
@<TRIPOS>MOLECULE
*****
 28 30 0 0 0
SMALL
GASTEIGER

@<TRIPOS>ATOM
      1 C          63.9358   87.7400   13.8198 C.ar    1  UNL1        0.0564
      2 C          64.5837   86.8872   14.8700 C.ar    1  UNL1        0.0056
      3 C          64.5493   85.3926   14.7487 C.ar    1  UNL1        0.0146
      4 C          63.8670   84.7507   13.5771 C.ar    1  UNL1        0.0915
      5 CL         63.8326   83.2560   13.4558 Cl      1  UNL1       -0.0791
      6 C          63.2192   85.6035   12.5269 C.ar    1  UNL1        0.1489
      7 C          63.2536   87.0981   12.6482 C.ar    1  UNL1        0.0423
      8 N          63.8474   90.0898   12.7148 N.am    1  UNL1       -0.2943
      9 C          63.9702   89.2348   13.9411 C.2     1  UNL1        0.2463
     10 O          64.1274   89.8744   15.2887 O.2     1  UNL1       -0.2701
     11 H          63.7442   89.6699   11.8303 H       1  UNL1        0.1501
     12 C          63.8818   91.5845   12.8361 C.3     1  UNL1        0.1579
     13 C          66.7646   93.1920   10.7940 C.ar    1  UNL1        0.1000
     14 C          65.6066   92.2450   10.9038 C.ar    1  UNL1        0.0553
     15 C          65.0482   92.3545   12.2917 C.ar    1  UNL1        0.1738
     16 O          65.8612   93.3693   13.0396 O.2     1  UNL1       -0.3563
     17 N          66.9220   93.8869   12.1140 N.ar    1  UNL1       -0.0817
     18 C          68.5299   92.3172    9.1002 C.3     1  UNL1        0.0064
     19 C          67.6158   93.4065    9.5776 C.3     1  UNL1        0.0436
     20 C          67.5531   94.7104    8.8387 C.3     1  UNL1        0.0064
     21 O          62.5369   84.9616   11.3553 O.3     1  UNL1       -0.4782
     22 C          61.7342   85.7985   10.4040 C.3     1  UNL1        0.1687
     23 C          61.8430   85.5671    8.9259 C.3     1  UNL1        0.0609
     24 C          61.0403   86.4040    7.9746 C.3     1  UNL1        0.0758
     25 N          60.1286   87.4724    8.5012 N.3     1  UNL1       -0.2713
     26 C          59.3258   88.3094    7.5498 C.3     1  UNL1        0.0896
     27 C          60.0198   87.7040    9.9792 C.3     1  UNL1        0.0758
     28 C          60.8226   86.8670   10.9307 C.3     1  UNL1        0.0609
@<TRIPOS>BOND
     1    18    19    1
     2    19    20    1
     3    19    13    1
     4    13    14   ar
     5    14    15   ar
     6    15    12    1
     7    12     8    1
     8     8     9   am
     9     9    10    2
    10     9     1    1
    11     1     2   ar
    12     2     3   ar
    13     3     4   ar
    14     4     5    1
    15     4     6   ar
    16     6    21    1
    17    21    22    1
    18    22    23    1
    19    23    24    1
    20    24    25    1
    21    25    26    1
    22    25    27    1
    23    27    28    1
    24     6     7   ar
    25    15    16   ar
    26    16    17   ar
    27    17    13   ar
    28     7     1   ar
    29    28    22    1
    30     8    11    1
@<TRIPOS>MOLECULE
*****
 28 30 0 0 0
SMALL
GASTEIGER

@<TRIPOS>ATOM
      1 C          63.9004   89.3421   14.4403 C.ar    1  UNL1        0.0564
      2 C          63.3255   89.3646   15.8255 C.ar    1  UNL1        0.0056
      3 C          63.6023   90.5259   16.7336 C.ar    1  UNL1        0.0146
      4 C          64.4541   91.6647   16.2564 C.ar    1  UNL1        0.0915
      5 CL         64.7310   92.8261   17.1646 Cl      1  UNL1       -0.0791
      6 C          65.0291   91.6421   14.8712 C.ar    1  UNL1        0.1489
      7 C          64.7522   90.4808   13.9632 C.ar    1  UNL1        0.0423
      8 N          63.9057   86.7823   13.9956 N.am    1  UNL1       -0.2943
      9 C          63.6236   88.1807   13.5322 C.2     1  UNL1        0.2463
     10 O          63.0645   88.4178   12.1606 O.2     1  UNL1       -0.2701
     11 H          64.2726   86.6267   14.8958 H       1  UNL1        0.1501
     12 C          63.6289   85.6209   13.0874 C.3     1  UNL1        0.1579
     13 C          62.4025   82.0365   13.9315 C.ar    1  UNL1        0.1000
     14 C          62.4951   83.2022   12.9921 C.ar    1  UNL1        0.0553
     15 C          63.2914   84.2793   13.6672 C.ar    1  UNL1        0.1738
     16 O          63.6908   83.7793   15.0238 O.2     1  UNL1       -0.3563
     17 N          63.1415   82.3931   15.1872 N.ar    1  UNL1       -0.0817
     18 C          62.3975   79.6430   12.9208 C.3     1  UNL1        0.0064
     19 C          61.6950   80.7414   13.6624 C.3     1  UNL1        0.0436
     20 C          60.2851   80.5447   14.1350 C.3     1  UNL1        0.0064
     21 O          65.8809   92.7809   14.3941 O.3     1  UNL1       -0.4782
     22 C          66.5770   92.6926   13.0684 C.3     1  UNL1        0.1687
     23 C          65.9886   93.3690   11.8657 C.3     1  UNL1        0.0609
     24 C          66.6847   93.2808   10.5400 C.3     1  UNL1        0.0758
     25 N          67.9693   92.5161   10.4168 N.3     1  UNL1       -0.2713
     26 C          68.6654   92.4278    9.0910 C.3     1  UNL1        0.0896
     27 C          68.5577   91.8396   11.6194 C.3     1  UNL1        0.0758
     28 C          67.8616   91.9279   12.9452 C.3     1  UNL1        0.0609
@<TRIPOS>BOND
     1    18    19    1
     2    19    20    1
     3    19    13    1
     4    13    14   ar
     5    14    15   ar
     6    15    12    1
     7    12     8    1
     8     8     9   am
     9     9    10    2
    10     9     1    1
    11     1     2   ar
    12     2     3   ar
    13     3     4   ar
    14     4     5    1
    15     4     6   ar
    16     6    21    1
    17    21    22    1
    18    22    23    1
    19    23    24    1
    20    24    25    1
    21    25    26    1
    22    25    27    1
    23    27    28    1
    24     6     7   ar
    25    15    16   ar
    26    16    17   ar
    27    17    13   ar
    28     7     1   ar
    29    28    22    1
    30     8    11    1
@<TRIPOS>MOLECULE
*****
 28 30 0 0 0
SMALL
GASTEIGER

@<TRIPOS>ATOM
      1 C          62.9511   84.4465   14.6338 C.ar    1  UNL1        0.0564
      2 C          62.7397   83.0116   15.0166 C.ar    1  UNL1        0.0056
      3 C          62.7863   81.9409   13.9672 C.ar    1  UNL1        0.0146
      4 C          63.0443   82.3050   12.5351 C.ar    1  UNL1        0.0915
      5 CL         63.0909   81.2341   11.4857 Cl      1  UNL1       -0.0791
      6 C          63.2558   83.7398   12.1524 C.ar    1  UNL1        0.1489
      7 C          63.2092   84.8105   13.2018 C.ar    1  UNL1        0.0423
      8 N          63.4552   86.8810   15.3882 N.am    1  UNL1       -0.2943
      9 C          62.9045   85.5173   15.6833 C.2     1  UNL1        0.2463
     10 O          62.3072   85.2244   17.0277 O.2     1  UNL1       -0.2701
     11 H          63.8473   87.0732   14.5059 H       1  UNL1        0.1501
     12 C          63.4086   87.9518   16.4376 C.3     1  UNL1        0.1579
     13 C          64.6736   91.3069   14.9516 C.ar    1  UNL1        0.1000
     14 C          64.6145   89.8081   14.9394 C.ar    1  UNL1        0.0553
     15 C          63.7423   89.3693   16.0781 C.ar    1  UNL1        0.1738
     16 O          63.2623   90.5970   16.7940 O.2     1  UNL1       -0.3563
     17 N          63.8379   91.7945   16.0978 N.ar    1  UNL1       -0.0817
     18 C          66.5023   93.0936   14.4891 C.3     1  UNL1        0.0064
     19 C          65.4348   92.1671   13.9869 C.3     1  UNL1        0.0436
     20 C          65.1285   92.1010   12.5200 C.3     1  UNL1        0.0064
     21 O          63.5138   84.1039   10.7203 O.3     1  UNL1       -0.4782
     22 C          62.5496   84.9872    9.9856 C.3     1  UNL1        0.1687
     23 C          62.5586   85.0234    8.4860 C.3     1  UNL1        0.0609
     24 C          61.5943   85.9068    7.7513 C.3     1  UNL1        0.0758
     25 N          60.6211   86.7540    8.5160 N.3     1  UNL1       -0.2713
     26 C          59.6568   87.6374    7.7812 C.3     1  UNL1        0.0896
     27 C          60.6120   86.7179   10.0155 C.3     1  UNL1        0.0758
     28 C          61.5763   85.8345   10.7504 C.3     1  UNL1        0.0609
@<TRIPOS>BOND
     1    18    19    1
     2    19    20    1
     3    19    13    1
     4    13    14   ar
     5    14    15   ar
     6    15    12    1
     7    12     8    1
     8     8     9   am
     9     9    10    2
    10     9     1    1
    11     1     2   ar
    12     2     3   ar
    13     3     4   ar
    14     4     5    1
    15     4     6   ar
    16     6    21    1
    17    21    22    1
    18    22    23    1
    19    23    24    1
    20    24    25    1
    21    25    26    1
    22    25    27    1
    23    27    28    1
    24     6     7   ar
    25    15    16   ar
    26    16    17   ar
    27    17    13   ar
    28     7     1   ar
    29    28    22    1
    30     8    11    1
@<TRIPOS>MOLECULE
*****
 28 30 0 0 0
SMALL
GASTEIGER

@<TRIPOS>ATOM
      1 C          61.0367   87.9214    9.4374 C.ar    1  UNL1        0.0564
      2 C          60.0080   87.7849    8.3543 C.ar    1  UNL1        0.0056
      3 C          60.0608   86.6185    7.4126 C.ar    1  UNL1        0.0146
      4 C          61.1423   85.5888    7.5540 C.ar    1  UNL1        0.0915
      5 CL         61.1951   84.4224    6.6122 Cl      1  UNL1       -0.0791
      6 C          62.1710   85.7253    8.6371 C.ar    1  UNL1        0.1489
      7 C          62.1182   86.8917    9.5788 C.ar    1  UNL1        0.0423
      8 N          61.8546   89.1056   11.6005 N.am    1  UNL1       -0.2943
      9 C          60.9839   89.0878   10.3792 C.2     1  UNL1        0.2463
     10 O          60.0605   90.2363   10.0996 O.2     1  UNL1       -0.2701
     11 H          62.4606   88.3518   11.7840 H       1  UNL1        0.1501
     12 C          61.8018   90.2720   12.5423 C.3     1  UNL1        0.1579
     13 C          65.0303   91.2508   14.4615 C.ar    1  UNL1        0.1000
     14 C          64.1923   91.2590   13.2174 C.ar    1  UNL1        0.0553
     15 C          62.9260   90.5088   13.5066 C.ar    1  UNL1        0.1738
     16 O          62.9814   90.0369   14.9294 O.2     1  UNL1       -0.3563
     17 N          64.2819   90.4955   15.5196 N.ar    1  UNL1       -0.0817
     18 C          66.7740   92.4924   15.9340 C.3     1  UNL1        0.0064
     19 C          66.3798   91.8864   14.6197 C.3     1  UNL1        0.0436
     20 C          67.3351   91.9159   13.4636 C.3     1  UNL1        0.0064
     21 O          63.2525   84.6956    8.7785 O.3     1  UNL1       -0.4782
     22 C          63.3849   83.9173   10.0538 C.3     1  UNL1        0.1687
     23 C          64.3212   82.7475   10.1248 C.3     1  UNL1        0.0609
     24 C          64.4536   81.9692   11.4002 C.3     1  UNL1        0.0758
     25 N          63.6498   82.3606   12.6047 N.3     1  UNL1       -0.2713
     26 C          63.7823   81.5823   13.8801 C.3     1  UNL1        0.0896
     27 C          62.7136   83.5304   12.5337 C.3     1  UNL1        0.0758
     28 C          62.5811   84.3088   11.2583 C.3     1  UNL1        0.0609
@<TRIPOS>BOND
     1    18    19    1
     2    19    20    1
     3    19    13    1
     4    13    14   ar
     5    14    15   ar
     6    15    12    1
     7    12     8    1
     8     8     9   am
     9     9    10    2
    10     9     1    1
    11     1     2   ar
    12     2     3   ar
    13     3     4   ar
    14     4     5    1
    15     4     6   ar
    16     6    21    1
    17    21    22    1
    18    22    23    1
    19    23    24    1
    20    24    25    1
    21    25    26    1
    22    25    27    1
    23    27    28    1
    24     6     7   ar
    25    15    16   ar
    26    16    17   ar
    27    17    13   ar
    28     7     1   ar
    29    28    22    1
    30     8    11    1
@<TRIPOS>MOLECULE
*****
 28 30 0 0 0
SMALL
GASTEIGER

@<TRIPOS>ATOM
      1 C          63.8868   87.2680   14.2336 C.ar    1  UNL1        0.0564
      2 C          64.2232   88.3009   15.2680 C.ar    1  UNL1        0.0056
      3 C          64.2305   89.7552   14.9008 C.ar    1  UNL1        0.0146
      4 C          63.9013   90.1766   13.4994 C.ar    1  UNL1        0.0915
      5 CL         63.9086   91.6311   13.1323 Cl      1  UNL1       -0.0791
      6 C          63.5649   89.1437   12.4651 C.ar    1  UNL1        0.1489
      7 C          63.5576   87.6894   12.8322 C.ar    1  UNL1        0.0423
      8 N          62.6056   85.1588   15.0459 N.am    1  UNL1       -0.2943
      9 C          63.8795   85.8136   14.6007 C.2     1  UNL1        0.2463
     10 O          65.1463   85.0140   14.5226 O.2     1  UNL1       -0.2701
     11 H          61.7742   85.6835   15.0971 H       1  UNL1        0.1501
     12 C          62.5983   83.7043   15.4130 C.3     1  UNL1        0.1579
     13 C          62.9304   81.5450   12.2048 C.ar    1  UNL1        0.1000
     14 C          63.1057   82.8443   12.9335 C.ar    1  UNL1        0.0553
     15 C          62.6101   82.6592   14.3371 C.ar    1  UNL1        0.1738
     16 O          62.1285   81.2454   14.4759 O.2     1  UNL1       -0.3563
     17 N          62.3263   80.5568   13.1581 N.ar    1  UNL1       -0.0817
     18 C          62.9268   79.9738   10.1357 C.3     1  UNL1        0.0064
     19 C          63.2950   81.2803   10.7741 C.3     1  UNL1        0.0436
     20 C          64.0277   82.3221    9.9818 C.3     1  UNL1        0.0064
     21 O          63.2357   89.5652   11.0636 O.3     1  UNL1       -0.4782
     22 C          62.1719   88.8411   10.2930 C.3     1  UNL1        0.1687
     23 C          61.0569   89.6108    9.6491 C.3     1  UNL1        0.0609
     24 C          59.9931   88.8867    8.8785 C.3     1  UNL1        0.0758
     25 N          60.0441   87.3930    8.7518 N.3     1  UNL1       -0.2713
     26 C          58.9801   86.6689    7.9811 C.3     1  UNL1        0.0896
     27 C          61.1589   86.6233    9.3956 C.3     1  UNL1        0.0758
     28 C          62.2229   87.3473   10.1663 C.3     1  UNL1        0.0609
@<TRIPOS>BOND
     1    18    19    1
     2    19    20    1
     3    19    13    1
     4    13    14   ar
     5    14    15   ar
     6    15    12    1
     7    12     8    1
     8     8     9   am
     9     9    10    2
    10     9     1    1
    11     1     2   ar
    12     2     3   ar
    13     3     4   ar
    14     4     5    1
    15     4     6   ar
    16     6    21    1
    17    21    22    1
    18    22    23    1
    19    23    24    1
    20    24    25    1
    21    25    26    1
    22    25    27    1
    23    27    28    1
    24     6     7   ar
    25    15    16   ar
    26    16    17   ar
    27    17    13   ar
    28     7     1   ar
    29    28    22    1
    30     8    11    1
@<TRIPOS>MOLECULE
*****
 28 30 0 0 0
SMALL
GASTEIGER

@<TRIPOS>ATOM
      1 C          63.9335   86.1339   14.5728 C.ar    1  UNL1        0.0564
      2 C          64.5240   85.0010   15.3587 C.ar    1  UNL1        0.0056
      3 C          64.6546   83.6433   14.7346 C.ar    1  UNL1        0.0146
      4 C          64.1947   83.4186   13.3246 C.ar    1  UNL1        0.0915
      5 CL         64.3254   82.0608   12.7005 Cl      1  UNL1       -0.0791
      6 C          63.6042   84.5515   12.5388 C.ar    1  UNL1        0.1489
      7 C          63.4736   85.9092   13.1629 C.ar    1  UNL1        0.0423
      8 N          64.1817   88.7154   14.4166 N.am    1  UNL1       -0.2943
      9 C          63.8028   87.4917   15.1969 C.2     1  UNL1        0.2463
     10 O          63.2934   87.6257   16.6014 O.2     1  UNL1       -0.2701
     11 H          64.5160   88.6275   13.4948 H       1  UNL1        0.1501
     12 C          64.0510   90.0732   15.0406 C.3     1  UNL1        0.1579
     13 C          65.8265   92.7745   12.8922 C.ar    1  UNL1        0.1000
     14 C          65.0293   91.5093   13.0095 C.ar    1  UNL1        0.0553
     15 C          64.8027   91.2377   14.4672 C.ar    1  UNL1        0.1738
     16 O          65.4599   92.3351   15.2508 O.2     1  UNL1       -0.3563
     17 N          66.0926   93.2849   14.2774 N.ar    1  UNL1       -0.0817
     18 C          66.8388   92.5726   10.5079 C.3     1  UNL1        0.0064
     19 C          66.2783   93.4166   11.6140 C.3     1  UNL1        0.0436
     20 C          66.1695   94.9027   11.4420 C.3     1  UNL1        0.0064
     21 O          63.1442   84.3268   11.1288 O.3     1  UNL1       -0.4782
     22 C          62.3151   85.3669   10.4356 C.3     1  UNL1        0.1687
     23 C          62.4435   85.5634    8.9540 C.3     1  UNL1        0.0609
     24 C          61.6144   86.6036    8.2608 C.3     1  UNL1        0.0758
     25 N          60.6568   87.4472    9.0491 N.3     1  UNL1       -0.2713
     26 C          59.8277   88.4874    8.3557 C.3     1  UNL1        0.0896
     27 C          60.5284   87.2507   10.5305 C.3     1  UNL1        0.0758
     28 C          61.3576   86.2106   11.2239 C.3     1  UNL1        0.0609
@<TRIPOS>BOND
     1    18    19    1
     2    19    20    1
     3    19    13    1
     4    13    14   ar
     5    14    15   ar
     6    15    12    1
     7    12     8    1
     8     8     9   am
     9     9    10    2
    10     9     1    1
    11     1     2   ar
    12     2     3   ar
    13     3     4   ar
    14     4     5    1
    15     4     6   ar
    16     6    21    1
    17    21    22    1
    18    22    23    1
    19    23    24    1
    20    24    25    1
    21    25    26    1
    22    25    27    1
    23    27    28    1
    24     6     7   ar
    25    15    16   ar
    26    16    17   ar
    27    17    13   ar
    28     7     1   ar
    29    28    22    1
    30     8    11    1
