@<TRIPOS>MOLECULE
*****
 33 35 0 0 0
SMALL
GASTEIGER

@<TRIPOS>ATOM
      1 C          65.1615   91.9828   12.6809 C.ar    1  UNL1        0.1508
      2 C          65.8694   91.7184   13.9766 C.ar    1  UNL1        0.0778
      3 CL         67.1535   92.4283   14.2882 Cl      1  UNL1       -0.0808
      4 C          65.2932   90.7439   14.9607 C.ar    1  UNL1        0.0142
      5 C          64.0092   90.0340   14.6491 C.ar    1  UNL1        0.0187
      6 C          63.3013   90.2984   13.3534 C.ar    1  UNL1        0.0870
      7 C          63.8775   91.2729   12.3693 C.ar    1  UNL1        0.1650
      8 O          63.1695   91.5373   11.0735 O.3     1  UNL1       -0.5032
      9 H          62.3674   91.0938   10.8789 H       1  UNL1        0.2923
     10 N          62.0172   89.5884   13.0418 N.am    1  UNL1       -0.2656
     11 C          61.8332   88.9207   11.7113 C.2     1  UNL1        0.3083
     12 O          62.9333   88.9630   10.6924 O.2     1  UNL1       -0.2521
     13 N          60.5492   88.2108   11.3996 N.am    1  UNL1       -0.2673
     14 H          61.2952   89.5607   13.7105 H       1  UNL1        0.1565
     15 H          59.8272   88.1830   12.0683 H       1  UNL1        0.1564
     16 C          60.3652   87.5430   10.0691 C.ar    1  UNL1        0.0630
     17 C          59.2649   87.9885    9.1521 C.ar    1  UNL1        0.0156
     18 C          59.0809   87.3208    7.8216 C.ar    1  UNL1        0.0022
     19 C          59.9972   86.2076    7.4080 C.ar    1  UNL1        0.0123
     20 C          61.0976   85.7620    8.3250 C.ar    1  UNL1        0.0694
     21 CL         62.0139   84.6488    7.9114 Cl      1  UNL1       -0.0813
     22 C          61.2816   86.4298    9.6555 C.ar    1  UNL1        0.0816
     23 CL         62.3819   85.9843   10.5724 Cl      1  UNL1       -0.0801
     24 S          65.7377   92.9572   11.6967 S.O2    1  UNL1        0.0108
     25 O          65.8211   91.8689   10.6679 O.2     1  UNL1       -0.1686
     26 O          65.6543   94.0456   12.7255 O.2     1  UNL1       -0.1686
     27 C          68.0424   96.8550    7.7602 C.3     1  UNL1        0.0896
     28 N          67.4662   95.8805    8.7443 N.3     1  UNL1       -0.2714
     29 C          67.8283   94.4273    8.6606 C.3     1  UNL1        0.0739
     30 C          67.2521   93.4529    9.6447 C.3     1  UNL1        0.0413
     31 C          66.3139   93.9317   10.7126 C.3     1  UNL1        0.1367
     32 C          65.9518   95.3849   10.7963 C.3     1  UNL1        0.0413
     33 C          66.5279   96.3593    9.8122 C.3     1  UNL1        0.0739
@<TRIPOS>BOND
     1    27    28    1
     2    28    29    1
     3    29    30    1
     4    30    31    1
     5    31    24    1
     6    24    25    2
     7    24    26    2
     8    24     1    1
     9     1     2   ar
    10     2     3    1
    11     2     4   ar
    12     4     5   ar
    13     5     6   ar
    14     6    10    1
    15    10    11   am
    16    11    12    2
    17    11    13   am
    18    13    16    1
    19    16    17   ar
    20    17    18   ar
    21    18    19   ar
    22    19    20   ar
    23    20    21    1
    24    20    22   ar
    25    22    23    1
    26     6     7   ar
    27     7     8    1
    28    31    32    1
    29    32    33    1
    30    33    28    1
    31     7     1   ar
    32    22    16   ar
    33    10    14    1
    34    13    15    1
    35     8     9    1
@<TRIPOS>MOLECULE
*****
 33 35 0 0 0
SMALL
GASTEIGER

@<TRIPOS>ATOM
      1 C          65.0786   91.7769   12.6899 C.ar    1  UNL1        0.1508
      2 C          65.3778   91.8484   14.1580 C.ar    1  UNL1        0.0778
      3 CL         66.2637   92.9353   14.6908 Cl      1  UNL1       -0.0808
      4 C          64.7912   90.8329   15.0933 C.ar    1  UNL1        0.0142
      5 C          63.9054   89.7460   14.5605 C.ar    1  UNL1        0.0187
      6 C          63.6062   89.6746   13.0924 C.ar    1  UNL1        0.0870
      7 C          64.1927   90.6900   12.1571 C.ar    1  UNL1        0.1650
      8 O          63.8934   90.6185   10.6890 O.3     1  UNL1       -0.5032
      9 H          63.3401   89.9396   10.3562 H       1  UNL1        0.2923
     10 N          62.7203   88.5876   12.5596 N.am    1  UNL1       -0.2656
     11 C          63.0776   87.1490   12.7889 C.2     1  UNL1        0.3083
     12 O          64.3208   86.7973   13.5510 O.2     1  UNL1       -0.2521
     13 N          62.1918   86.0621   12.2561 N.am    1  UNL1       -0.2673
     14 H          61.9044   88.8185   12.0594 H       1  UNL1        0.1565
     15 H          61.3759   86.2929   11.7559 H       1  UNL1        0.1564
     16 C          62.5492   84.6234   12.4854 C.ar    1  UNL1        0.0630
     17 C          62.4224   84.0285   13.8565 C.ar    1  UNL1        0.0156
     18 C          62.7798   82.5898   14.0858 C.ar    1  UNL1        0.0022
     19 C          63.2639   81.7461   12.9440 C.ar    1  UNL1        0.0123
     20 C          63.3906   82.3410   11.5728 C.ar    1  UNL1        0.0694
     21 CL         63.8747   81.4973   10.4310 Cl      1  UNL1       -0.0813
     22 C          63.0333   83.7797   11.3435 C.ar    1  UNL1        0.0816
     23 CL         63.1600   84.3746    9.9724 Cl      1  UNL1       -0.0801
     24 S          65.6651   92.7924   11.7546 S.O2    1  UNL1        0.0108
     25 O          64.2848   93.2052   11.3371 O.2     1  UNL1       -0.1686
     26 O          67.0454   92.3796   12.1720 O.2     1  UNL1       -0.1686
     27 C          68.0114   96.8542    8.0134 C.3     1  UNL1        0.0896
     28 N          67.4248   95.8388    8.9487 N.3     1  UNL1       -0.2714
     29 C          66.3632   96.2454    9.9272 C.3     1  UNL1        0.0739
     30 C          65.7766   95.2300   10.8625 C.3     1  UNL1        0.0413
     31 C          66.2517   93.8079   10.8193 C.3     1  UNL1        0.1367
     32 C          67.3133   93.4012    9.8407 C.3     1  UNL1        0.0413
     33 C          67.8999   94.4167    8.9054 C.3     1  UNL1        0.0739
@<TRIPOS>BOND
     1    27    28    1
     2    28    29    1
     3    29    30    1
     4    30    31    1
     5    31    24    1
     6    24    25    2
     7    24    26    2
     8    24     1    1
     9     1     2   ar
    10     2     3    1
    11     2     4   ar
    12     4     5   ar
    13     5     6   ar
    14     6    10    1
    15    10    11   am
    16    11    12    2
    17    11    13   am
    18    13    16    1
    19    16    17   ar
    20    17    18   ar
    21    18    19   ar
    22    19    20   ar
    23    20    21    1
    24    20    22   ar
    25    22    23    1
    26     6     7   ar
    27     7     8    1
    28    31    32    1
    29    32    33    1
    30    33    28    1
    31     7     1   ar
    32    22    16   ar
    33    10    14    1
    34    13    15    1
    35     8     9    1
@<TRIPOS>MOLECULE
*****
 33 35 0 0 0
SMALL
GASTEIGER

@<TRIPOS>ATOM
      1 C          63.8202   88.8810   15.3779 C.ar    1  UNL1        0.1508
      2 C          63.0582   89.3604   16.5777 C.ar    1  UNL1        0.0778
      3 CL         62.6783   90.8067   16.6962 Cl      1  UNL1       -0.0808
      4 C          62.6760   88.3936   17.6590 C.ar    1  UNL1        0.0142
      5 C          63.0558   86.9474   17.5405 C.ar    1  UNL1        0.0187
      6 C          63.8178   86.4679   16.3408 C.ar    1  UNL1        0.0870
      7 C          64.2000   87.4348   15.2595 C.ar    1  UNL1        0.1650
      8 O          64.9620   86.9553   14.0597 O.3     1  UNL1       -0.5032
      9 H          65.1993   86.0518   13.9857 H       1  UNL1        0.2923
     10 N          64.1977   85.0216   16.2223 N.am    1  UNL1       -0.2656
     11 C          63.6840   84.2029   15.0752 C.2     1  UNL1        0.3083
     12 O          62.7904   84.8304   14.0467 O.2     1  UNL1       -0.2521
     13 N          64.0638   82.7566   14.9567 N.am    1  UNL1       -0.2673
     14 H          64.7842   84.6098   16.8973 H       1  UNL1        0.1565
     15 H          64.6503   82.3448   15.6317 H       1  UNL1        0.1564
     16 C          63.5501   81.9378   13.8097 C.ar    1  UNL1        0.0630
     17 C          62.6404   80.7734   14.0675 C.ar    1  UNL1        0.0156
     18 C          62.1266   79.9546   12.9205 C.ar    1  UNL1        0.0022
     19 C          62.5226   80.3003   11.5156 C.ar    1  UNL1        0.0123
     20 C          63.4324   81.4647   11.2577 C.ar    1  UNL1        0.0694
     21 CL         63.8284   81.8103    9.8528 Cl      1  UNL1       -0.0813
     22 C          63.9461   82.2835   12.4047 C.ar    1  UNL1        0.0816
     23 CL         64.8558   83.4479   12.1469 Cl      1  UNL1       -0.0801
     24 S          64.2023   89.8478   14.2966 S.O2    1  UNL1        0.0108
     25 O          65.5461   90.0329   14.9370 O.2     1  UNL1       -0.1686
     26 O          62.8586   89.6627   13.6562 O.2     1  UNL1       -0.1686
     27 C          65.7310   93.7151    9.9714 C.3     1  UNL1        0.0896
     28 N          65.3488   92.7483   11.0527 N.3     1  UNL1       -0.2714
     29 C          64.1793   91.8295   10.8583 C.3     1  UNL1        0.0739
     30 C          63.7971   90.8627   11.9396 C.3     1  UNL1        0.0413
     31 C          64.5845   90.8146   13.2153 C.3     1  UNL1        0.1367
     32 C          65.7540   91.7335   13.4098 C.3     1  UNL1        0.0413
     33 C          66.1362   92.7003   12.3285 C.3     1  UNL1        0.0739
@<TRIPOS>BOND
     1    27    28    1
     2    28    29    1
     3    29    30    1
     4    30    31    1
     5    31    24    1
     6    24    25    2
     7    24    26    2
     8    24     1    1
     9     1     2   ar
    10     2     3    1
    11     2     4   ar
    12     4     5   ar
    13     5     6   ar
    14     6    10    1
    15    10    11   am
    16    11    12    2
    17    11    13   am
    18    13    16    1
    19    16    17   ar
    20    17    18   ar
    21    18    19   ar
    22    19    20   ar
    23    20    21    1
    24    20    22   ar
    25    22    23    1
    26     6     7   ar
    27     7     8    1
    28    31    32    1
    29    32    33    1
    30    33    28    1
    31     7     1   ar
    32    22    16   ar
    33    10    14    1
    34    13    15    1
    35     8     9    1
@<TRIPOS>MOLECULE
*****
 33 35 0 0 0
SMALL
GASTEIGER

@<TRIPOS>ATOM
      1 C          57.2976   95.2090   -3.8534 C.ar    1  UNL1        0.1508
      2 C          58.0045   94.6521   -5.0535 C.ar    1  UNL1        0.0778
      3 CL         57.2469   94.4116   -6.3256 Cl      1  UNL1       -0.0808
      4 C          59.4689   94.3356   -4.9814 C.ar    1  UNL1        0.0142
      5 C          60.2265   94.5761   -3.7094 C.ar    1  UNL1        0.0187
      6 C          59.5196   95.1330   -2.5093 C.ar    1  UNL1        0.0870
      7 C          58.0552   95.4495   -2.5814 C.ar    1  UNL1        0.1650
      8 O          57.3483   96.0064   -1.3813 O.3     1  UNL1       -0.5032
      9 H          57.8215   96.1566   -0.5866 H       1  UNL1        0.2923
     10 N          60.2772   95.3735   -1.2372 N.am    1  UNL1       -0.2656
     11 C          60.3547   94.2970   -0.1955 C.2     1  UNL1        0.3083
     12 O          59.6746   92.9800   -0.4260 O.2     1  UNL1       -0.2521
     13 N          61.1122   94.5374    1.0766 N.am    1  UNL1       -0.2673
     14 H          60.7236   96.2379   -1.0860 H       1  UNL1        0.1565
     15 H          61.5586   95.4018    1.2279 H       1  UNL1        0.1564
     16 C          61.1897   93.4609    2.1183 C.ar    1  UNL1        0.0630
     17 C          60.0428   93.2452    3.0606 C.ar    1  UNL1        0.0156
     18 C          60.1203   92.1687    4.1023 C.ar    1  UNL1        0.0022
     19 C          61.3446   91.3079    4.2017 C.ar    1  UNL1        0.0123
     20 C          62.4916   91.5236    3.2593 C.ar    1  UNL1        0.0694
     21 CL         63.7160   90.6628    3.3587 Cl      1  UNL1       -0.0813
     22 C          62.4142   92.6001    2.2176 C.ar    1  UNL1        0.0816
     23 CL         63.5610   92.8158    1.2753 Cl      1  UNL1       -0.0801
     24 S          55.8331   95.5255   -3.9255 S.O2    1  UNL1        0.0108
     25 O          56.1425   96.7862   -4.6771 O.2     1  UNL1       -0.1686
     26 O          55.5237   94.2648   -3.1739 O.2     1  UNL1       -0.1686
     27 C          49.9753   96.7913   -4.2137 C.3     1  UNL1        0.0896
     28 N          51.4397   96.4749   -4.1416 N.3     1  UNL1       -0.2714
     29 C          52.2552   96.4075   -5.3987 C.3     1  UNL1        0.0739
     30 C          53.7197   96.0911   -5.3267 C.3     1  UNL1        0.0413
     31 C          54.3686   95.8419   -3.9975 C.3     1  UNL1        0.1367
     32 C          53.5532   95.9093   -2.7404 C.3     1  UNL1        0.0413
     33 C          52.0887   96.2257   -2.8125 C.3     1  UNL1        0.0739
@<TRIPOS>BOND
     1    27    28    1
     2    28    29    1
     3    29    30    1
     4    30    31    1
     5    31    24    1
     6    24    25    2
     7    24    26    2
     8    24     1    1
     9     1     2   ar
    10     2     3    1
    11     2     4   ar
    12     4     5   ar
    13     5     6   ar
    14     6    10    1
    15    10    11   am
    16    11    12    2
    17    11    13   am
    18    13    16    1
    19    16    17   ar
    20    17    18   ar
    21    18    19   ar
    22    19    20   ar
    23    20    21    1
    24    20    22   ar
    25    22    23    1
    26     6     7   ar
    27     7     8    1
    28    31    32    1
    29    32    33    1
    30    33    28    1
    31     7     1   ar
    32    22    16   ar
    33    10    14    1
    34    13    15    1
    35     8     9    1
@<TRIPOS>MOLECULE
*****
 33 35 0 0 0
SMALL
GASTEIGER

@<TRIPOS>ATOM
      1 C          63.5341   84.5941   13.8568 C.ar    1  UNL1        0.1508
      2 C          63.9056   84.6110   15.3100 C.ar    1  UNL1        0.0778
      3 CL         64.0848   83.3205   16.0534 Cl      1  UNL1       -0.0808
      4 C          64.0980   85.9184   16.0198 C.ar    1  UNL1        0.0142
      5 C          63.9188   87.2088   15.2764 C.ar    1  UNL1        0.0187
      6 C          63.5473   87.1919   13.8233 C.ar    1  UNL1        0.0870
      7 C          63.3549   85.8845   13.1135 C.ar    1  UNL1        0.1650
      8 O          62.9834   85.8676   11.6603 O.3     1  UNL1       -0.5032
      9 H          62.8714   86.6738   11.1959 H       1  UNL1        0.2923
     10 N          63.3681   88.4824   13.0799 N.am    1  UNL1       -0.2656
     11 C          64.2665   89.6474   13.3724 C.2     1  UNL1        0.3083
     12 O          65.3440   89.5220   14.4084 O.2     1  UNL1       -0.2521
     13 N          64.0873   90.9378   12.6291 N.am    1  UNL1       -0.2673
     14 H          62.6608   88.5647   12.4000 H       1  UNL1        0.1565
     15 H          63.3801   91.0202   11.9491 H       1  UNL1        0.1564
     16 C          64.9857   92.1029   12.9216 C.ar    1  UNL1        0.0630
     17 C          65.4875   92.3313   14.3166 C.ar    1  UNL1        0.0156
     18 C          66.3859   93.4963   14.6091 C.ar    1  UNL1        0.0022
     19 C          66.7825   94.4330   13.5067 C.ar    1  UNL1        0.0123
     20 C          66.2807   94.2046   12.1116 C.ar    1  UNL1        0.0694
     21 CL         66.6772   95.1413   11.0092 Cl      1  UNL1       -0.0813
     22 C          65.3823   93.0396   11.8191 C.ar    1  UNL1        0.0816
     23 CL         64.8804   92.8112   10.4241 Cl      1  UNL1       -0.0801
     24 S          63.3417   83.2867   13.1470 S.O2    1  UNL1        0.0108
     25 O          62.0243   83.1040   13.8406 O.2     1  UNL1       -0.1686
     26 O          64.6592   83.4694   12.4535 O.2     1  UNL1       -0.1686
     27 C          62.5723   78.0573   10.3079 C.3     1  UNL1        0.0896
     28 N          62.7647   79.3646   11.0177 N.3     1  UNL1       -0.2714
     29 C          62.5364   79.4553   12.4974 C.3     1  UNL1        0.0739
     30 C          62.7288   80.7627   13.2072 C.3     1  UNL1        0.0413
     31 C          63.1494   81.9793   12.4373 C.3     1  UNL1        0.1367
     32 C          63.3776   81.8886   10.9575 C.3     1  UNL1        0.0413
     33 C          63.1853   80.5813   10.2478 C.3     1  UNL1        0.0739
@<TRIPOS>BOND
     1    27    28    1
     2    28    29    1
     3    29    30    1
     4    30    31    1
     5    31    24    1
     6    24    25    2
     7    24    26    2
     8    24     1    1
     9     1     2   ar
    10     2     3    1
    11     2     4   ar
    12     4     5   ar
    13     5     6   ar
    14     6    10    1
    15    10    11   am
    16    11    12    2
    17    11    13   am
    18    13    16    1
    19    16    17   ar
    20    17    18   ar
    21    18    19   ar
    22    19    20   ar
    23    20    21    1
    24    20    22   ar
    25    22    23    1
    26     6     7   ar
    27     7     8    1
    28    31    32    1
    29    32    33    1
    30    33    28    1
    31     7     1   ar
    32    22    16   ar
    33    10    14    1
    34    13    15    1
    35     8     9    1
@<TRIPOS>MOLECULE
*****
 33 35 0 0 0
SMALL
GASTEIGER

@<TRIPOS>ATOM
      1 C          63.5500   87.8875   14.2917 C.ar    1  UNL1        0.1508
      2 C          63.5608   88.0376   15.7841 C.ar    1  UNL1        0.0778
      3 CL         63.5607   86.8200   16.6604 Cl      1  UNL1       -0.0808
      4 C          63.5717   89.4051   16.4004 C.ar    1  UNL1        0.0142
      5 C          63.5718   90.6226   15.5243 C.ar    1  UNL1        0.0187
      6 C          63.5610   90.4725   14.0318 C.ar    1  UNL1        0.0870
      7 C          63.5501   89.1050   13.4156 C.ar    1  UNL1        0.1650
      8 O          63.5393   88.9551   11.9231 O.3     1  UNL1       -0.5032
      9 H          63.5394   89.7156   11.3758 H       1  UNL1        0.2923
     10 N          63.5611   91.6901   13.1556 N.am    1  UNL1       -0.2656
     11 C          64.7726   92.0247   12.3369 C.2     1  UNL1        0.3083
     12 O          65.9840   91.1419   12.3944 O.2     1  UNL1       -0.2521
     13 N          64.7728   93.2422   11.4607 N.am    1  UNL1       -0.2673
     14 H          62.7661   92.2695   13.1179 H       1  UNL1        0.1565
     15 H          63.9777   93.8216   11.4230 H       1  UNL1        0.1564
     16 C          65.9842   93.5768   10.6419 C.ar    1  UNL1        0.0630
     17 C          66.9762   92.5057   10.2979 C.ar    1  UNL1        0.0156
     18 C          68.1877   92.8403    9.4791 C.ar    1  UNL1        0.0022
     19 C          68.4072   94.2462    9.0044 C.ar    1  UNL1        0.0123
     20 C          67.4151   95.3175    9.3485 C.ar    1  UNL1        0.0694
     21 CL         67.6346   96.7233    8.8738 Cl      1  UNL1       -0.0813
     22 C          66.2037   94.9828   10.1673 C.ar    1  UNL1        0.0816
     23 CL         65.2117   96.0540   10.5113 Cl      1  UNL1       -0.0801
     24 S          63.5391   86.5200   13.6754 S.O2    1  UNL1        0.0108
     25 O          62.3323   86.8940   12.8669 O.2     1  UNL1       -0.1686
     26 O          64.7459   86.1460   14.4840 O.2     1  UNL1       -0.1686
     27 C          63.4955   81.0500   11.2104 C.3     1  UNL1        0.0896
     28 N          63.5064   82.4175   11.8266 N.3     1  UNL1       -0.2714
     29 C          62.7450   83.5371   11.1812 C.3     1  UNL1        0.0739
     30 C          62.7559   84.9046   11.7974 C.3     1  UNL1        0.0413
     31 C          63.5282   85.1525   13.0592 C.3     1  UNL1        0.1367
     32 C          64.2896   84.0329   13.7046 C.3     1  UNL1        0.0413
     33 C          64.2787   82.6654   13.0884 C.3     1  UNL1        0.0739
@<TRIPOS>BOND
     1    27    28    1
     2    28    29    1
     3    29    30    1
     4    30    31    1
     5    31    24    1
     6    24    25    2
     7    24    26    2
     8    24     1    1
     9     1     2   ar
    10     2     3    1
    11     2     4   ar
    12     4     5   ar
    13     5     6   ar
    14     6    10    1
    15    10    11   am
    16    11    12    2
    17    11    13   am
    18    13    16    1
    19    16    17   ar
    20    17    18   ar
    21    18    19   ar
    22    19    20   ar
    23    20    21    1
    24    20    22   ar
    25    22    23    1
    26     6     7   ar
    27     7     8    1
    28    31    32    1
    29    32    33    1
    30    33    28    1
    31     7     1   ar
    32    22    16   ar
    33    10    14    1
    34    13    15    1
    35     8     9    1
@<TRIPOS>MOLECULE
*****
 33 35 0 0 0
SMALL
GASTEIGER

@<TRIPOS>ATOM
      1 C          58.1249   94.3745   -2.0990 C.ar    1  UNL1        0.1508
      2 C          57.4383   95.4879   -1.3650 C.ar    1  UNL1        0.0778
      3 CL         55.9400   95.5553   -1.3361 Cl      1  UNL1       -0.0808
      4 C          58.2498   96.5338   -0.6597 C.ar    1  UNL1        0.0142
      5 C          59.7480   96.4664   -0.6885 C.ar    1  UNL1        0.0187
      6 C          60.4346   95.3530   -1.4225 C.ar    1  UNL1        0.0870
      7 C          59.6231   94.3070   -2.1278 C.ar    1  UNL1        0.1650
      8 O          60.3098   93.1936   -2.8618 O.3     1  UNL1       -0.5032
      9 H          61.2457   93.1515   -2.8798 H       1  UNL1        0.2923
     10 N          61.9329   95.2855   -1.4514 N.am    1  UNL1       -0.2656
     11 C          62.6637   95.3979   -2.7565 C.2     1  UNL1        0.3083
     12 O          61.8963   95.5777   -4.0327 O.2     1  UNL1       -0.2521
     13 N          64.1619   95.3304   -2.7853 N.am    1  UNL1       -0.2673
     14 H          62.4365   95.1675   -0.6137 H       1  UNL1        0.1565
     15 H          64.6655   95.2124   -1.9477 H       1  UNL1        0.1564
     16 C          64.8927   95.4428   -4.0904 C.ar    1  UNL1        0.0630
     17 C          65.5393   96.7393   -4.4787 C.ar    1  UNL1        0.0156
     18 C          66.2701   96.8517   -5.7838 C.ar    1  UNL1        0.0022
     19 C          66.3543   95.6675   -6.7006 C.ar    1  UNL1        0.0123
     20 C          65.7077   94.3708   -6.3123 C.ar    1  UNL1        0.0694
     21 CL         65.7919   93.1866   -7.2291 Cl      1  UNL1       -0.0813
     22 C          64.9769   94.2585   -5.0072 C.ar    1  UNL1        0.0816
     23 CL         64.3303   92.9619   -4.6189 Cl      1  UNL1       -0.0801
     24 S          57.3133   93.3285   -2.8042 S.O2    1  UNL1        0.0108
     25 O          57.4070   92.4423   -1.5976 O.2     1  UNL1       -0.1686
     26 O          57.2197   94.2147   -4.0108 O.2     1  UNL1       -0.1686
     27 C          54.0672   89.1446   -5.6251 C.3     1  UNL1        0.0896
     28 N          54.8787   90.1906   -4.9199 N.3     1  UNL1       -0.2714
     29 C          55.4161   91.3643   -5.6838 C.3     1  UNL1        0.0739
     30 C          56.2276   92.4102   -4.9786 C.3     1  UNL1        0.0413
     31 C          56.5018   92.2825   -3.5094 C.3     1  UNL1        0.1367
     32 C          55.9644   91.1088   -2.7455 C.3     1  UNL1        0.0413
     33 C          55.1529   90.0629   -3.4507 C.3     1  UNL1        0.0739
@<TRIPOS>BOND
     1    27    28    1
     2    28    29    1
     3    29    30    1
     4    30    31    1
     5    31    24    1
     6    24    25    2
     7    24    26    2
     8    24     1    1
     9     1     2   ar
    10     2     3    1
    11     2     4   ar
    12     4     5   ar
    13     5     6   ar
    14     6    10    1
    15    10    11   am
    16    11    12    2
    17    11    13   am
    18    13    16    1
    19    16    17   ar
    20    17    18   ar
    21    18    19   ar
    22    19    20   ar
    23    20    21    1
    24    20    22   ar
    25    22    23    1
    26     6     7   ar
    27     7     8    1
    28    31    32    1
    29    32    33    1
    30    33    28    1
    31     7     1   ar
    32    22    16   ar
    33    10    14    1
    34    13    15    1
    35     8     9    1
