@<TRIPOS>MOLECULE
*****
 18 19 0 0 0
SMALL
GASTEIGER

@<TRIPOS>ATOM
      1 C          63.8562   83.2163   11.8204 C.ar    1  UNL1        0.1386
      2 C          63.1267   84.2164   12.6675 C.ar    1  UNL1        0.0369
      3 C          62.4102   85.3653   12.0220 C.ar    1  UNL1        0.0047
      4 C          62.4232   85.5141   10.5295 C.ar    1  UNL1        0.0211
      5 C          63.1528   84.5140    9.6824 C.ar    1  UNL1        0.0047
      6 C          63.8693   83.3651   10.3279 C.ar    1  UNL1        0.0369
      7 C          61.7067   86.6630    9.8840 C.ar    1  UNL1        0.1194
      8 C          61.9337   88.1175   10.1719 C.ar    1  UNL1        0.1002
      9 C          61.0047   88.9126    9.3032 C.ar    1  UNL1        0.3166
     10 N          60.2035   87.9495    8.4783 N.ar    1  UNL1       -0.0722
     11 C          59.1529   88.3128    7.4712 C.3     1  UNL1        0.4352
     12 N          60.6374   86.5592    8.8373 N.ar    1  UNL1       -0.1601
     13 H          60.2826   85.7250    8.4533 H       1  UNL1        0.2366
     14 O          64.5728   82.0674   12.4659 O.3     1  UNL1       -0.4755
     15 C          63.8350   81.1507   13.3961 C.3     1  UNL1        0.2054
     16 C          62.3990   80.8087   13.1296 C.3     1  UNL1        0.0473
     17 C          60.0353   80.4528   14.1475 C.3     1  UNL1        0.0001
     18 C          61.3404   81.1917   14.1209 C.3     1  UNL1        0.0038
@<TRIPOS>UNITY_ATOM_ATTR
10 1
charge 1
@<TRIPOS>BOND
     1    17    18    1
     2    18    16    1
     3    16    15    1
     4    15    14    1
     5    14     1    1
     6     1     2   ar
     7     2     3   ar
     8     3     4   ar
     9     4     7    1
    10     7     8   ar
    11     8     9   ar
    12     9    10   ar
    13    10    11    1
    14    10    12   ar
    15     4     5   ar
    16     5     6   ar
    17     6     1   ar
    18    12     7   ar
    19    12    13    1
@<TRIPOS>MOLECULE
*****
 18 19 0 0 0
SMALL
GASTEIGER

@<TRIPOS>ATOM
      1 C          64.3226   91.5254   12.3166 C.ar    1  UNL1        0.1386
      2 C          63.9179   90.2919   13.0680 C.ar    1  UNL1        0.0369
      3 C          63.0966   89.2360   12.3894 C.ar    1  UNL1        0.0047
      4 C          62.6799   89.4136   10.9595 C.ar    1  UNL1        0.0211
      5 C          63.0846   90.6471   10.2081 C.ar    1  UNL1        0.0047
      6 C          63.9059   91.7030   10.8867 C.ar    1  UNL1        0.0369
      7 C          61.8585   88.3577   10.2809 C.ar    1  UNL1        0.1194
      8 C          62.0177   86.8754   10.4459 C.ar    1  UNL1        0.1002
      9 C          60.9913   86.2003    9.5852 C.ar    1  UNL1        0.3166
     10 N          60.1978   87.2654    8.8883 N.ar    1  UNL1       -0.0722
     11 C          59.0668   87.0373    7.9297 C.3     1  UNL1        0.4352
     12 N          60.7337   88.5988    9.3183 N.ar    1  UNL1       -0.1601
     13 H          60.4049   89.4778    9.0209 H       1  UNL1        0.2366
     14 O          65.1440   92.5813   12.9952 O.3     1  UNL1       -0.4755
     15 C          66.6129   92.6869   12.7106 C.3     1  UNL1        0.2054
     16 C          67.5976   91.9449   13.5649 C.3     1  UNL1        0.0473
     17 C          67.2887   92.6920   16.0340 C.3     1  UNL1        0.0001
     18 C          67.2577   91.6167   14.9886 C.3     1  UNL1        0.0038
@<TRIPOS>UNITY_ATOM_ATTR
10 1
charge 1
@<TRIPOS>BOND
     1    17    18    1
     2    18    16    1
     3    16    15    1
     4    15    14    1
     5    14     1    1
     6     1     2   ar
     7     2     3   ar
     8     3     4   ar
     9     4     7    1
    10     7     8   ar
    11     8     9   ar
    12     9    10   ar
    13    10    11    1
    14    10    12   ar
    15     4     5   ar
    16     5     6   ar
    17     6     1   ar
    18    12     7   ar
    19    12    13    1
@<TRIPOS>MOLECULE
*****
 18 19 0 0 0
SMALL
GASTEIGER

@<TRIPOS>ATOM
      1 C          62.1208   88.9584   11.3845 C.ar    1  UNL1        0.1386
      2 C          62.1713   89.8648   10.1904 C.ar    1  UNL1        0.0369
      3 C          63.0907   91.0500   10.1868 C.ar    1  UNL1        0.0047
      4 C          63.9597   91.3288   11.3772 C.ar    1  UNL1        0.0211
      5 C          63.9092   90.4224   12.5713 C.ar    1  UNL1        0.0047
      6 C          62.9897   89.2372   12.5749 C.ar    1  UNL1        0.0369
      7 C          64.8791   92.5139   11.3736 C.ar    1  UNL1        0.1194
      8 C          65.6704   93.0195   12.5433 C.ar    1  UNL1        0.1002
      9 C          66.4490   94.2197   12.0922 C.ar    1  UNL1        0.3166
     10 N          66.1390   94.4558   10.6437 N.ar    1  UNL1       -0.0722
     11 C          66.7005   95.5534    9.7894 C.3     1  UNL1        0.4352
     12 N          65.1687   93.4016   10.1996 N.ar    1  UNL1       -0.1601
     13 H          64.7886   93.3086    9.2962 H       1  UNL1        0.2366
     14 O          61.2013   87.7733   11.3881 O.3     1  UNL1       -0.4755
     15 C          60.4203   87.4262   10.1555 C.3     1  UNL1        0.2054
     16 C          60.9194   86.3589    9.2271 C.3     1  UNL1        0.0473
     17 C          62.9330   85.1917    8.0725 C.3     1  UNL1        0.0001
     18 C          62.3781   86.0101    9.2004 C.3     1  UNL1        0.0038
@<TRIPOS>UNITY_ATOM_ATTR
10 1
charge 1
@<TRIPOS>BOND
     1    17    18    1
     2    18    16    1
     3    16    15    1
     4    15    14    1
     5    14     1    1
     6     1     2   ar
     7     2     3   ar
     8     3     4   ar
     9     4     7    1
    10     7     8   ar
    11     8     9   ar
    12     9    10   ar
    13    10    11    1
    14    10    12   ar
    15     4     5   ar
    16     5     6   ar
    17     6     1   ar
    18    12     7   ar
    19    12    13    1
@<TRIPOS>MOLECULE
*****
 18 19 0 0 0
SMALL
GASTEIGER

@<TRIPOS>ATOM
      1 C          64.1836   91.4110   12.2695 C.ar    1  UNL1        0.1386
      2 C          63.8461   90.1233   12.9608 C.ar    1  UNL1        0.0369
      3 C          63.0483   89.0743   12.2445 C.ar    1  UNL1        0.0047
      4 C          62.5880   89.3130   10.8370 C.ar    1  UNL1        0.0211
      5 C          62.9256   90.6006   10.1457 C.ar    1  UNL1        0.0047
      6 C          63.7234   91.6497   10.8620 C.ar    1  UNL1        0.0369
      7 C          61.7902   88.2639   10.1207 C.ar    1  UNL1        0.1194
      8 C          61.9710   86.7801   10.2460 C.ar    1  UNL1        0.1002
      9 C          60.9641   86.1137    9.3561 C.ar    1  UNL1        0.3166
     10 N          60.1610   87.1856    8.6808 N.ar    1  UNL1       -0.0722
     11 C          59.0435   86.9669    7.7043 C.3     1  UNL1        0.4352
     12 N          60.6716   88.5145    9.1533 N.ar    1  UNL1       -0.1601
     13 H          60.3321   89.3963    8.8770 H       1  UNL1        0.2366
     14 O          64.9814   92.4600   12.9858 O.3     1  UNL1       -0.4755
     15 C          66.0792   93.1877   12.2680 C.3     1  UNL1        0.2054
     16 C          67.2095   92.4191   11.6501 C.3     1  UNL1        0.0473
     17 C          68.6129   92.4777    9.4645 C.3     1  UNL1        0.0001
     18 C          67.2975   92.2837   10.1588 C.3     1  UNL1        0.0038
@<TRIPOS>UNITY_ATOM_ATTR
10 1
charge 1
@<TRIPOS>BOND
     1    17    18    1
     2    18    16    1
     3    16    15    1
     4    15    14    1
     5    14     1    1
     6     1     2   ar
     7     2     3   ar
     8     3     4   ar
     9     4     7    1
    10     7     8   ar
    11     8     9   ar
    12     9    10   ar
    13    10    11    1
    14    10    12   ar
    15     4     5   ar
    16     5     6   ar
    17     6     1   ar
    18    12     7   ar
    19    12    13    1
@<TRIPOS>MOLECULE
*****
 18 19 0 0 0
SMALL
GASTEIGER

@<TRIPOS>ATOM
      1 C          60.0747   87.2912    8.5052 C.ar    1  UNL1        0.1386
      2 C          60.0359   87.6861    9.9517 C.ar    1  UNL1        0.0369
      3 C          60.9021   86.9731   10.9474 C.ar    1  UNL1        0.0047
      4 C          61.8071   85.8652   10.4965 C.ar    1  UNL1        0.0211
      5 C          61.8460   85.4703    9.0500 C.ar    1  UNL1        0.0047
      6 C          60.9798   86.1833    8.0543 C.ar    1  UNL1        0.0369
      7 C          62.6734   85.1522   11.4922 C.ar    1  UNL1        0.1194
      8 C          63.3547   83.8324   11.2827 C.ar    1  UNL1        0.1002
      9 C          64.1128   83.4984   12.5332 C.ar    1  UNL1        0.3166
     10 N          63.8999   84.6117   13.5156 N.ar    1  UNL1       -0.0722
     11 C          64.4756   84.6894   14.8985 C.3     1  UNL1        0.4352
     12 N          63.0103   85.6338   12.8722 N.ar    1  UNL1       -0.1601
     13 H          62.7018   86.4734   13.2835 H       1  UNL1        0.2366
     14 O          59.2085   88.0042    7.5096 O.3     1  UNL1       -0.4755
     15 C          59.4337   89.4598    7.2261 C.3     1  UNL1        0.2054
     16 C          59.4495   89.9544    5.8101 C.3     1  UNL1        0.0473
     17 C          59.0917   92.1931    4.5411 C.3     1  UNL1        0.0001
     18 C          58.5555   91.0875    5.4014 C.3     1  UNL1        0.0038
@<TRIPOS>UNITY_ATOM_ATTR
10 1
charge 1
@<TRIPOS>BOND
     1    17    18    1
     2    18    16    1
     3    16    15    1
     4    15    14    1
     5    14     1    1
     6     1     2   ar
     7     2     3   ar
     8     3     4   ar
     9     4     7    1
    10     7     8   ar
    11     8     9   ar
    12     9    10   ar
    13    10    11    1
    14    10    12   ar
    15     4     5   ar
    16     5     6   ar
    17     6     1   ar
    18    12     7   ar
    19    12    13    1
@<TRIPOS>MOLECULE
*****
 18 19 0 0 0
SMALL
GASTEIGER

@<TRIPOS>ATOM
      1 C          63.7968   90.3244   14.2060 C.ar    1  UNL1        0.1386
      2 C          64.9765   91.1052   14.7045 C.ar    1  UNL1        0.0369
      3 C          65.6942   92.0486   13.7852 C.ar    1  UNL1        0.0047
      4 C          65.2321   92.2111   12.3674 C.ar    1  UNL1        0.0211
      5 C          64.0524   91.4303   11.8690 C.ar    1  UNL1        0.0047
      6 C          63.3347   90.4870   12.7882 C.ar    1  UNL1        0.0369
      7 C          65.9498   93.1544   11.4482 C.ar    1  UNL1        0.1194
      8 C          66.8987   92.7672   10.3529 C.ar    1  UNL1        0.1002
      9 C          67.3800   94.0240    9.6906 C.ar    1  UNL1        0.3166
     10 N          66.7285   95.1881   10.3765 N.ar    1  UNL1       -0.0722
     11 C          66.9262   96.6355   10.0360 C.3     1  UNL1        0.4352
     12 N          65.8447   94.6506   11.4628 N.ar    1  UNL1       -0.1601
     13 H          65.2925   95.1860   12.0774 H       1  UNL1        0.2366
     14 O          63.0791   89.3811   15.1252 O.3     1  UNL1       -0.4755
     15 C          63.7641   88.1366   15.6067 C.3     1  UNL1        0.2054
     16 C          64.4160   87.2108   14.6229 C.3     1  UNL1        0.0473
     17 C          63.7343   84.8032   15.3220 C.3     1  UNL1        0.0001
     18 C          64.7988   85.8217   15.0401 C.3     1  UNL1        0.0038
@<TRIPOS>UNITY_ATOM_ATTR
10 1
charge 1
@<TRIPOS>BOND
     1    17    18    1
     2    18    16    1
     3    16    15    1
     4    15    14    1
     5    14     1    1
     6     1     2   ar
     7     2     3   ar
     8     3     4   ar
     9     4     7    1
    10     7     8   ar
    11     8     9   ar
    12     9    10   ar
    13    10    11    1
    14    10    12   ar
    15     4     5   ar
    16     5     6   ar
    17     6     1   ar
    18    12     7   ar
    19    12    13    1
@<TRIPOS>MOLECULE
*****
 18 19 0 0 0
SMALL
GASTEIGER

@<TRIPOS>ATOM
      1 C          63.3085   83.8229   10.7717 C.ar    1  UNL1        0.1386
      2 C          63.0798   84.5533    9.4817 C.ar    1  UNL1        0.0369
      3 C          62.5480   85.9558    9.4979 C.ar    1  UNL1        0.0047
      4 C          62.2448   86.6279   10.8042 C.ar    1  UNL1        0.0211
      5 C          62.4735   85.8975   12.0942 C.ar    1  UNL1        0.0047
      6 C          63.0053   84.4950   12.0780 C.ar    1  UNL1        0.0369
      7 C          61.7130   88.0303   10.8205 C.ar    1  UNL1        0.1194
      8 C          62.4140   89.2453   10.2892 C.ar    1  UNL1        0.1002
      9 C          61.5211   90.4300   10.5112 C.ar    1  UNL1        0.3166
     10 N          60.2681   89.9471   11.1797 N.ar    1  UNL1       -0.0722
     11 C          59.1014   90.7978   11.5858 C.3     1  UNL1        0.4352
     12 N          60.3867   88.4640   11.3708 N.ar    1  UNL1       -0.1601
     13 H          59.7125   87.8782   11.7848 H       1  UNL1        0.2366
     14 O          63.8403   82.4205   10.7554 O.3     1  UNL1       -0.4755
     15 C          63.9654   81.6509   12.0368 C.3     1  UNL1        0.2054
     16 C          62.8928   80.6818   12.4375 C.3     1  UNL1        0.0473
     17 C          62.0896   82.0519   14.4936 C.3     1  UNL1        0.0001
     18 C          61.7914   81.1199   13.3568 C.3     1  UNL1        0.0038
@<TRIPOS>UNITY_ATOM_ATTR
10 1
charge 1
@<TRIPOS>BOND
     1    17    18    1
     2    18    16    1
     3    16    15    1
     4    15    14    1
     5    14     1    1
     6     1     2   ar
     7     2     3   ar
     8     3     4   ar
     9     4     7    1
    10     7     8   ar
    11     8     9   ar
    12     9    10   ar
    13    10    11    1
    14    10    12   ar
    15     4     5   ar
    16     5     6   ar
    17     6     1   ar
    18    12     7   ar
    19    12    13    1
@<TRIPOS>MOLECULE
*****
 18 19 0 0 0
SMALL
GASTEIGER

@<TRIPOS>ATOM
      1 C          63.9221   90.2078   13.3189 C.ar    1  UNL1        0.1386
      2 C          64.5225   89.5751   14.5393 C.ar    1  UNL1        0.0369
      3 C          64.4645   88.0869   14.7181 C.ar    1  UNL1        0.0047
      4 C          63.8060   87.2315   13.6767 C.ar    1  UNL1        0.0211
      5 C          63.2057   87.8642   12.4564 C.ar    1  UNL1        0.0047
      6 C          63.2637   89.3523   12.2775 C.ar    1  UNL1        0.0369
      7 C          63.7480   85.7433   13.8556 C.ar    1  UNL1        0.1194
      8 C          64.6517   84.9243   14.7288 C.ar    1  UNL1        0.1002
      9 C          64.2383   83.4877   14.6056 C.ar    1  UNL1        0.3166
     10 N          63.0791   83.4188   13.6561 N.ar    1  UNL1       -0.0722
     11 C          62.3508   82.1743   13.2428 C.3     1  UNL1        0.4352
     12 N          62.7761   84.8128   13.1926 N.ar    1  UNL1       -0.1601
     13 H          62.0643   85.0716   12.5637 H       1  UNL1        0.2366
     14 O          63.9801   91.6960   13.1401 O.3     1  UNL1       -0.4755
     15 C          65.0852   92.3120   12.3343 C.3     1  UNL1        0.2054
     16 C          66.2628   92.9315   13.0268 C.3     1  UNL1        0.0473
     17 C          67.5212   91.6637   14.9135 C.3     1  UNL1        0.0001
     18 C          67.4074   92.0714   13.4745 C.3     1  UNL1        0.0038
@<TRIPOS>UNITY_ATOM_ATTR
10 1
charge 1
@<TRIPOS>BOND
     1    17    18    1
     2    18    16    1
     3    16    15    1
     4    15    14    1
     5    14     1    1
     6     1     2   ar
     7     2     3   ar
     8     3     4   ar
     9     4     7    1
    10     7     8   ar
    11     8     9   ar
    12     9    10   ar
    13    10    11    1
    14    10    12   ar
    15     4     5   ar
    16     5     6   ar
    17     6     1   ar
    18    12     7   ar
    19    12    13    1
@<TRIPOS>MOLECULE
*****
 18 19 0 0 0
SMALL
GASTEIGER

@<TRIPOS>ATOM
      1 C          61.3441   87.3533    9.5810 C.ar    1  UNL1        0.1386
      2 C          62.2553   86.4707    8.7806 C.ar    1  UNL1        0.0369
      3 C          62.8388   85.2359    9.4010 C.ar    1  UNL1        0.0047
      4 C          62.5111   84.8838   10.8218 C.ar    1  UNL1        0.0211
      5 C          61.5999   85.7664   11.6221 C.ar    1  UNL1        0.0047
      6 C          61.0164   87.0012   11.0017 C.ar    1  UNL1        0.0369
      7 C          63.0946   83.6490   11.4422 C.ar    1  UNL1        0.1194
      8 C          64.4598   83.0885   11.1742 C.ar    1  UNL1        0.1002
      9 C          64.6243   81.8510   12.0059 C.ar    1  UNL1        0.3166
     10 N          63.3607   81.6468   12.7879 N.ar    1  UNL1       -0.0722
     11 C          63.0900   80.5278   13.7495 C.3     1  UNL1        0.4352
     12 N          62.4153   82.7580   12.4395 N.ar    1  UNL1       -0.1601
     13 H          61.5082   82.8810   12.8018 H       1  UNL1        0.2366
     14 O          60.7606   88.5881    8.9606 O.3     1  UNL1       -0.4755
     15 C          61.0497   89.9345    9.5550 C.3     1  UNL1        0.2054
     16 C          62.3975   90.2183   10.1492 C.3     1  UNL1        0.0473
     17 C          63.2630   89.4286   12.4682 C.3     1  UNL1        0.0001
     18 C          62.5350   90.4349   11.6272 C.3     1  UNL1        0.0038
@<TRIPOS>UNITY_ATOM_ATTR
10 1
charge 1
@<TRIPOS>BOND
     1    17    18    1
     2    18    16    1
     3    16    15    1
     4    15    14    1
     5    14     1    1
     6     1     2   ar
     7     2     3   ar
     8     3     4   ar
     9     4     7    1
    10     7     8   ar
    11     8     9   ar
    12     9    10   ar
    13    10    11    1
    14    10    12   ar
    15     4     5   ar
    16     5     6   ar
    17     6     1   ar
    18    12     7   ar
    19    12    13    1
