@<TRIPOS>MOLECULE
*****
 32 34 0 0 0
SMALL
GASTEIGER

@<TRIPOS>ATOM
      1 C          64.7232   90.4276   14.9440 C.ar    1  UNL1        0.0513
      2 C          63.5767   90.4067   15.9109 C.ar    1  UNL1        0.1073
      3 N          63.0589   89.0009   15.9856 N.ar    1  UNL1       -0.2223
      4 C          63.8856   88.1529   15.0649 C.ar    1  UNL1        0.1667
      5 S          64.9142   89.0347   14.4212 S.2     1  UNL1       -0.0513
      6 N          63.7137   86.6815   14.8293 N.am    1  UNL1       -0.2483
      7 C          63.3379   86.1790   13.4669 C.2     1  UNL1        0.3094
      8 O          63.1339   87.1479   12.3400 O.2     1  UNL1       -0.2522
      9 N          63.1661   84.7076   13.2313 N.am    1  UNL1       -0.2572
     10 C          63.3359   83.6250   14.2555 C.3     1  UNL1        0.0955
     11 C          63.0691   82.3088   13.5873 C.3     1  UNL1        0.0238
     12 C          62.7343   82.5780   12.1501 C.3     1  UNL1        0.0310
     13 C          62.7943   84.0605   11.9301 C.3     1  UNL1        0.1528
     14 H          63.8476   86.0456   15.5689 H       1  UNL1        0.1583
     15 C          62.5290   84.7713   10.6361 C.2     1  UNL1        0.2375
     16 N          61.3894   85.7414   10.5332 N.am    1  UNL1       -0.3275
     17 O          63.4032   84.5122    9.4451 O.2     1  UNL1       -0.2736
     18 H          60.8157   85.9114   11.3150 H       1  UNL1        0.1450
     19 H          61.2153   86.2079    9.6840 H       1  UNL1        0.1450
     20 C          66.4223   93.2687   12.7550 C.ar    1  UNL1        0.0663
     21 C          65.6094   92.0661   13.1328 C.ar    1  UNL1        0.0155
     22 C          65.5362   91.6303   14.5663 C.ar    1  UNL1        0.0103
     23 C          66.2761   92.3972   15.6219 C.ar    1  UNL1        0.0212
     24 C          67.0890   93.5998   15.2442 C.ar    1  UNL1        0.0985
     25 N          67.1621   94.0356   13.8107 N.ar    1  UNL1       -0.2479
     26 C          66.8445   92.3038   10.9136 C.3     1  UNL1        0.0145
     27 C          66.4954   93.7044   11.3216 C.3     1  UNL1        0.1226
     28 C          66.1463   95.1050   11.7295 C.3     1  UNL1        0.0145
     29 C          66.5685   94.1402    9.8881 C.3     1  UNL1        0.4020
     30 F          66.6416   94.5759    8.4547 F       1  UNL1       -0.1696
     31 F          67.5315   93.0271    9.5989 F       1  UNL1       -0.1696
     32 F          65.6056   95.2533   10.1774 F       1  UNL1       -0.1696
@<TRIPOS>BOND
     1    26    27    1
     2    27    28    1
     3    27    20    1
     4    20    21   ar
     5    21    22   ar
     6    22     1    1
     7     1     2   ar
     8     2     3   ar
     9     3     4   ar
    10     4     6    1
    11     6     7   am
    12     7     8    2
    13     7     9   am
    14     9    10    1
    15    10    11    1
    16    11    12    1
    17    12    13    1
    18    13    15    1
    19    15    16   am
    20    15    17    2
    21     4     5   ar
    22    22    23   ar
    23    23    24   ar
    24    24    25   ar
    25    27    29    1
    26    29    30    1
    27    29    31    1
    28    29    32    1
    29    25    20   ar
    30     5     1   ar
    31    13     9    1
    32     6    14    1
    33    16    18    1
    34    16    19    1
@<TRIPOS>MOLECULE
*****
 32 34 0 0 0
SMALL
GASTEIGER

@<TRIPOS>ATOM
      1 C          63.1399   89.3812   12.1692 C.ar    1  UNL1        0.0513
      2 C          63.4670   89.6953   13.5990 C.ar    1  UNL1        0.1073
      3 N          64.0407   91.0803   13.6498 N.ar    1  UNL1       -0.2223
      4 C          64.0683   91.6222   12.2513 C.ar    1  UNL1        0.1667
      5 S          63.5115   90.5720   11.3363 S.2     1  UNL1       -0.0513
      6 N          64.5653   92.9763   11.8400 N.am    1  UNL1       -0.2483
      7 C          65.7674   93.0958   10.9508 C.2     1  UNL1        0.3094
      8 O          66.4725   91.8611   10.4729 O.2     1  UNL1       -0.2522
      9 N          66.2644   94.4500   10.5396 N.am    1  UNL1       -0.2572
     10 C          65.6658   95.7669   10.9364 C.3     1  UNL1        0.0955
     11 C          66.4788   96.8558   10.3014 C.3     1  UNL1        0.0238
     12 C          67.5799   96.2120    9.5121 C.3     1  UNL1        0.0310
     13 C          67.4474   94.7251    9.6593 C.3     1  UNL1        0.1528
     14 H          64.1026   93.7867   12.1537 H       1  UNL1        0.1583
     15 C          68.3410   93.6943    9.0357 C.2     1  UNL1        0.2375
     16 N          69.2492   92.8686    9.8981 N.am    1  UNL1       -0.3275
     17 O          68.3264   93.4890    7.5500 O.2     1  UNL1       -0.2736
     18 H          69.2587   93.0034   10.8733 H       1  UNL1        0.1450
     19 H          69.8357   92.1920    9.4889 H       1  UNL1        0.1450
     20 C          62.4976   85.5036   11.6194 C.ar    1  UNL1        0.0663
     21 C          63.0919   86.7838   12.1271 C.ar    1  UNL1        0.0155
     22 C          62.5455   88.1009   11.6615 C.ar    1  UNL1        0.0103
     23 C          61.4049   88.1378   10.6881 C.ar    1  UNL1        0.0212
     24 C          60.8106   86.8575   10.1804 C.ar    1  UNL1        0.0985
     25 N          61.3569   85.5405   10.6460 N.ar    1  UNL1       -0.2479
     26 C          62.7376   84.5614   13.5048 C.3     1  UNL1        0.0145
     27 C          63.0440   84.1866   12.0850 C.3     1  UNL1        0.1226
     28 C          63.3503   83.8117   10.6653 C.3     1  UNL1        0.0145
     29 C          63.5903   82.8695   12.5507 C.3     1  UNL1        0.4020
     30 F          64.1367   81.5524   13.0163 F       1  UNL1       -0.1696
     31 F          62.5063   82.1544   11.8000 F       1  UNL1       -0.1696
     32 F          64.6744   83.5846   13.3014 F       1  UNL1       -0.1696
@<TRIPOS>BOND
     1    26    27    1
     2    27    28    1
     3    27    20    1
     4    20    21   ar
     5    21    22   ar
     6    22     1    1
     7     1     2   ar
     8     2     3   ar
     9     3     4   ar
    10     4     6    1
    11     6     7   am
    12     7     8    2
    13     7     9   am
    14     9    10    1
    15    10    11    1
    16    11    12    1
    17    12    13    1
    18    13    15    1
    19    15    16   am
    20    15    17    2
    21     4     5   ar
    22    22    23   ar
    23    23    24   ar
    24    24    25   ar
    25    27    29    1
    26    29    30    1
    27    29    31    1
    28    29    32    1
    29    25    20   ar
    30     5     1   ar
    31    13     9    1
    32     6    14    1
    33    16    18    1
    34    16    19    1
@<TRIPOS>MOLECULE
*****
 32 34 0 0 0
SMALL
GASTEIGER

@<TRIPOS>ATOM
      1 C          63.8266   91.2301   12.6283 C.ar    1  UNL1        0.0513
      2 C          63.2129   90.4226   13.7334 C.ar    1  UNL1        0.1073
      3 N          62.1542   89.5454   13.1336 N.ar    1  UNL1       -0.2223
      4 C          62.1136   89.8108   11.6578 C.ar    1  UNL1        0.1667
      5 S          63.1472   90.8520   11.3455 S.2     1  UNL1       -0.0513
      6 N          61.1998   89.1509   10.6681 N.am    1  UNL1       -0.2483
      7 C          61.6427   87.9110    9.9493 C.2     1  UNL1        0.3094
      8 O          62.9993   87.3311   10.2202 O.2     1  UNL1       -0.2522
      9 N          60.7290   87.2511    8.9596 N.am    1  UNL1       -0.2572
     10 C          59.3514   87.7131    8.5871 C.3     1  UNL1        0.0955
     11 C          58.8034   86.7608    7.5659 C.3     1  UNL1        0.0238
     12 C          59.8423   85.7102    7.3073 C.3     1  UNL1        0.0310
     13 C          61.0323   86.0132    8.1686 C.3     1  UNL1        0.1528
     14 H          60.3094   89.5314   10.4903 H       1  UNL1        0.1583
     15 C          62.3028   85.2180    8.2286 C.2     1  UNL1        0.2375
     16 N          62.8294   84.7444    9.5509 N.am    1  UNL1       -0.3275
     17 O          63.0466   84.8964    6.9663 O.2     1  UNL1       -0.2736
     18 H          62.3412   84.9554   10.3793 H       1  UNL1        0.1450
     19 H          63.6632   84.2224    9.5903 H       1  UNL1        0.1450
     20 C          66.3927   94.1359   11.7788 C.ar    1  UNL1        0.0663
     21 C          65.2927   93.1274   11.6277 C.ar    1  UNL1        0.0155
     22 C          64.9266   92.2387   12.7794 C.ar    1  UNL1        0.0103
     23 C          65.6605   92.3586   14.0820 C.ar    1  UNL1        0.0212
     24 C          66.7605   93.3671   14.2331 C.ar    1  UNL1        0.0985
     25 N          67.1266   94.2558   13.0814 N.ar    1  UNL1       -0.2479
     26 C          67.4005   93.8602    9.9326 C.3     1  UNL1        0.0145
     27 C          66.7588   95.0246   10.6271 C.3     1  UNL1        0.1226
     28 C          66.1170   96.1890   11.3217 C.3     1  UNL1        0.0145
     29 C          67.1248   95.9133    9.4755 C.3     1  UNL1        0.4020
     30 F          67.4909   96.8019    8.3239 F       1  UNL1       -0.1696
     31 F          68.2297   94.9710    9.0996 F       1  UNL1       -0.1696
     32 F          66.0200   96.8556    9.8515 F       1  UNL1       -0.1696
@<TRIPOS>BOND
     1    26    27    1
     2    27    28    1
     3    27    20    1
     4    20    21   ar
     5    21    22   ar
     6    22     1    1
     7     1     2   ar
     8     2     3   ar
     9     3     4   ar
    10     4     6    1
    11     6     7   am
    12     7     8    2
    13     7     9   am
    14     9    10    1
    15    10    11    1
    16    11    12    1
    17    12    13    1
    18    13    15    1
    19    15    16   am
    20    15    17    2
    21     4     5   ar
    22    22    23   ar
    23    23    24   ar
    24    24    25   ar
    25    27    29    1
    26    29    30    1
    27    29    31    1
    28    29    32    1
    29    25    20   ar
    30     5     1   ar
    31    13     9    1
    32     6    14    1
    33    16    18    1
    34    16    19    1
@<TRIPOS>MOLECULE
*****
 32 34 0 0 0
SMALL
GASTEIGER

@<TRIPOS>ATOM
      1 C          63.6362   88.6051   16.0845 C.ar    1  UNL1        0.0513
      2 C          62.8771   88.2209   17.3198 C.ar    1  UNL1        0.1073
      3 N          62.5024   86.7732   17.2022 N.ar    1  UNL1       -0.2223
      4 C          63.0300   86.2626   15.8941 C.ar    1  UNL1        0.1667
      5 S          63.7306   87.3948   15.2033 S.2     1  UNL1       -0.0513
      6 N          62.8826   84.8653   15.3690 N.am    1  UNL1       -0.2483
      7 C          63.0848   84.5876   13.9088 C.2     1  UNL1        0.3094
      8 O          63.4343   85.7073   12.9738 O.2     1  UNL1       -0.2522
      9 N          62.9375   83.1903   13.3837 N.am    1  UNL1       -0.2572
     10 C          62.5932   81.9757   14.1938 C.3     1  UNL1        0.0955
     11 C          62.5515   80.7970   13.2671 C.3     1  UNL1        0.0238
     12 C          62.8700   81.2830   11.8842 C.3     1  UNL1        0.0310
     13 C          63.1086   82.7622   11.9563 C.3     1  UNL1        0.1528
     14 H          62.6532   84.1305   15.9827 H       1  UNL1        0.1583
     15 C          63.4571   83.6563   10.8035 C.2     1  UNL1        0.2375
     16 N          62.5748   84.8212   10.4645 N.am    1  UNL1       -0.3275
     17 O          64.6876   83.3857    9.9897 O.2     1  UNL1       -0.2736
     18 H          61.7671   84.9988   10.9987 H       1  UNL1        0.1450
     19 H          62.8034   85.4081    9.7079 H       1  UNL1        0.1450
     20 C          65.5461   91.5419   14.2197 C.ar    1  UNL1        0.0663
     21 C          64.9807   90.1857   14.5211 C.ar    1  UNL1        0.0155
     22 C          64.2016   89.9614   15.7831 C.ar    1  UNL1        0.0103
     23 C          63.9879   91.0934   16.7437 C.ar    1  UNL1        0.0212
     24 C          64.5533   92.4497   16.4423 C.ar    1  UNL1        0.0985
     25 N          65.3324   92.6739   15.1803 N.ar    1  UNL1       -0.2479
     26 C          67.6052   91.7082   13.7376 C.3     1  UNL1        0.0145
     27 C          66.3252   91.7662   12.9577 C.3     1  UNL1        0.1226
     28 C          65.0452   91.8242   12.1778 C.3     1  UNL1        0.0145
     29 C          67.1043   91.9904   11.6956 C.3     1  UNL1        0.4020
     30 F          67.8834   92.2147   10.4336 F       1  UNL1       -0.1696
     31 F          68.3651   91.5903   12.4029 F       1  UNL1       -0.1696
     32 F          65.8435   92.3906   10.9884 F       1  UNL1       -0.1696
@<TRIPOS>BOND
     1    26    27    1
     2    27    28    1
     3    27    20    1
     4    20    21   ar
     5    21    22   ar
     6    22     1    1
     7     1     2   ar
     8     2     3   ar
     9     3     4   ar
    10     4     6    1
    11     6     7   am
    12     7     8    2
    13     7     9   am
    14     9    10    1
    15    10    11    1
    16    11    12    1
    17    12    13    1
    18    13    15    1
    19    15    16   am
    20    15    17    2
    21     4     5   ar
    22    22    23   ar
    23    23    24   ar
    24    24    25   ar
    25    27    29    1
    26    29    30    1
    27    29    31    1
    28    29    32    1
    29    25    20   ar
    30     5     1   ar
    31    13     9    1
    32     6    14    1
    33    16    18    1
    34    16    19    1
@<TRIPOS>MOLECULE
*****
 32 34 0 0 0
SMALL
GASTEIGER

@<TRIPOS>ATOM
      1 C          60.5545   89.1836   10.5444 C.ar    1  UNL1        0.0513
      2 C          59.7094   89.3290   11.7750 C.ar    1  UNL1        0.1073
      3 N          60.6023   89.7534   12.9031 N.ar    1  UNL1       -0.2223
      4 C          61.9994   89.8703   12.3697 C.ar    1  UNL1        0.1667
      5 S          61.9698   89.5182   10.9119 S.2     1  UNL1       -0.0513
      6 N          63.2129   90.2693   13.1559 N.am    1  UNL1       -0.2483
      7 C          64.2064   91.2267   12.5674 C.2     1  UNL1        0.3094
      8 O          63.9865   91.7850   11.1927 O.2     1  UNL1       -0.2522
      9 N          65.4199   91.6257   13.3537 N.am    1  UNL1       -0.2572
     10 C          65.7718   91.1522   14.7328 C.3     1  UNL1        0.0955
     11 C          67.0640   91.8021   15.1304 C.3     1  UNL1        0.0238
     12 C          67.5106   92.6772   13.9969 C.3     1  UNL1        0.0310
     13 C          66.4946   92.5682   12.8989 C.3     1  UNL1        0.1528
     14 H          63.3572   89.9028   14.0582 H       1  UNL1        0.1583
     15 C          66.5443   93.2771   11.5779 C.2     1  UNL1        0.2375
     16 N          65.5637   94.3717   11.2769 N.am    1  UNL1       -0.3275
     17 O          67.5744   92.8916   10.5581 O.2     1  UNL1       -0.2736
     18 H          64.8876   94.6247   11.9463 H       1  UNL1        0.1450
     19 H          65.5963   94.8370   10.4099 H       1  UNL1        0.1450
     20 C          59.3731   89.4038    6.7621 C.ar    1  UNL1        0.0663
     21 C          59.8581   89.8120    8.1215 C.ar    1  UNL1        0.0155
     22 C          60.0696   88.7754    9.1849 C.ar    1  UNL1        0.0103
     23 C          59.7962   87.3306    8.8887 C.ar    1  UNL1        0.0212
     24 C          59.3113   86.9224    7.5293 C.ar    1  UNL1        0.0985
     25 N          59.0998   87.9590    6.4659 N.ar    1  UNL1       -0.2479
     26 C          60.6458   90.5519    5.5122 C.3     1  UNL1        0.0145
     27 C          59.1616   90.4404    5.6987 C.3     1  UNL1        0.1226
     28 C          57.6774   90.3289    5.8853 C.3     1  UNL1        0.0145
     29 C          58.9501   91.4770    4.6354 C.3     1  UNL1        0.4020
     30 F          58.7385   92.5137    3.5721 F       1  UNL1       -0.1696
     31 F          60.4315   91.6985    4.5566 F       1  UNL1       -0.1696
     32 F          57.4686   91.2556    4.7142 F       1  UNL1       -0.1696
@<TRIPOS>BOND
     1    26    27    1
     2    27    28    1
     3    27    20    1
     4    20    21   ar
     5    21    22   ar
     6    22     1    1
     7     1     2   ar
     8     2     3   ar
     9     3     4   ar
    10     4     6    1
    11     6     7   am
    12     7     8    2
    13     7     9   am
    14     9    10    1
    15    10    11    1
    16    11    12    1
    17    12    13    1
    18    13    15    1
    19    15    16   am
    20    15    17    2
    21     4     5   ar
    22    22    23   ar
    23    23    24   ar
    24    24    25   ar
    25    27    29    1
    26    29    30    1
    27    29    31    1
    28    29    32    1
    29    25    20   ar
    30     5     1   ar
    31    13     9    1
    32     6    14    1
    33    16    18    1
    34    16    19    1
@<TRIPOS>MOLECULE
*****
 32 34 0 0 0
SMALL
GASTEIGER

@<TRIPOS>ATOM
      1 C          63.9797   87.9815   15.0326 C.ar    1  UNL1        0.0513
      2 C          63.6629   86.9817   16.1050 C.ar    1  UNL1        0.1073
      3 N          63.5397   85.6332   15.4598 N.ar    1  UNL1       -0.2223
      4 C          63.7804   85.7995   13.9885 C.ar    1  UNL1        0.1667
      5 S          64.0524   87.2508   13.7246 S.2     1  UNL1       -0.0513
      6 N          63.7539   84.7065   12.9616 N.am    1  UNL1       -0.2483
      7 C          63.1845   83.3633   13.3106 C.2     1  UNL1        0.3094
      8 O          62.6417   83.1132   14.6864 O.2     1  UNL1       -0.2522
      9 N          63.1580   82.2703   12.2837 N.am    1  UNL1       -0.2572
     10 C          63.6618   82.3719   10.8745 C.3     1  UNL1        0.0955
     11 C          63.4382   81.0481   10.2056 C.3     1  UNL1        0.0238
     12 C          62.7960   80.1282   11.2013 C.3     1  UNL1        0.0310
     13 C          62.6228   80.8835   12.4856 C.3     1  UNL1        0.1528
     14 H          64.1102   84.8706   12.0587 H       1  UNL1        0.1583
     15 C          62.0203   80.3466   13.7500 C.2     1  UNL1        0.2375
     16 N          60.6189   80.7220   14.1313 N.am    1  UNL1       -0.3275
     17 O          62.8191   79.4343   14.6330 O.2     1  UNL1       -0.2736
     18 H          60.0947   81.3207   13.5518 H       1  UNL1        0.1450
     19 H          60.2234   80.3696   14.9612 H       1  UNL1        0.1450
     20 C          65.0499   91.7434   14.3600 C.ar    1  UNL1        0.0663
     21 C          64.8422   90.2715   14.1596 C.ar    1  UNL1        0.0155
     22 C          64.1874   89.4535   15.2330 C.ar    1  UNL1        0.0103
     23 C          63.7404   90.1074   16.5067 C.ar    1  UNL1        0.0212
     24 C          63.9481   91.5794   16.7071 C.ar    1  UNL1        0.0985
     25 N          64.6029   92.3974   15.6337 N.ar    1  UNL1       -0.2479
     26 C          64.8389   91.9009   12.2551 C.3     1  UNL1        0.0145
     27 C          65.7047   92.5614   13.2866 C.3     1  UNL1        0.1226
     28 C          66.5706   93.2219   14.3182 C.3     1  UNL1        0.0145
     29 C          66.3595   93.3794   12.2133 C.3     1  UNL1        0.4020
     30 F          67.0143   94.1974   11.1399 F       1  UNL1       -0.1696
     31 F          66.3546   92.1878   11.3022 F       1  UNL1       -0.1696
     32 F          66.3645   94.5710   13.1243 F       1  UNL1       -0.1696
@<TRIPOS>BOND
     1    26    27    1
     2    27    28    1
     3    27    20    1
     4    20    21   ar
     5    21    22   ar
     6    22     1    1
     7     1     2   ar
     8     2     3   ar
     9     3     4   ar
    10     4     6    1
    11     6     7   am
    12     7     8    2
    13     7     9   am
    14     9    10    1
    15    10    11    1
    16    11    12    1
    17    12    13    1
    18    13    15    1
    19    15    16   am
    20    15    17    2
    21     4     5   ar
    22    22    23   ar
    23    23    24   ar
    24    24    25   ar
    25    27    29    1
    26    29    30    1
    27    29    31    1
    28    29    32    1
    29    25    20   ar
    30     5     1   ar
    31    13     9    1
    32     6    14    1
    33    16    18    1
    34    16    19    1
@<TRIPOS>MOLECULE
*****
 32 34 0 0 0
SMALL
GASTEIGER

@<TRIPOS>ATOM
      1 C          59.0161   89.8882    6.3626 C.ar    1  UNL1        0.0513
      2 C          57.5716   90.2693    6.2280 C.ar    1  UNL1        0.1073
      3 N          57.4590   91.2761    5.1218 N.ar    1  UNL1       -0.2223
      4 C          58.8339   91.5171    4.5726 C.ar    1  UNL1        0.1667
      5 S          59.7963   90.6593    5.3395 S.2     1  UNL1       -0.0513
      6 N          59.1849   92.4518    3.4532 N.am    1  UNL1       -0.2483
      7 C          60.6233   92.7213    3.1242 C.2     1  UNL1        0.3094
      8 O          61.7108   92.0562    3.9147 O.2     1  UNL1       -0.2522
      9 N          60.9742   93.6560    2.0048 N.am    1  UNL1       -0.2572
     10 C          60.0007   94.3902    1.1312 C.3     1  UNL1        0.0955
     11 C          60.7851   95.2086    0.1489 C.3     1  UNL1        0.0238
     12 C          62.2435   94.9802    0.4153 C.3     1  UNL1        0.0310
     13 C          62.3604   94.0207    1.5623 C.3     1  UNL1        0.1528
     14 H          58.4711   92.8884    2.9343 H       1  UNL1        0.1583
     15 C          63.6389   93.5146    2.1617 C.2     1  UNL1        0.2375
     16 N          63.9205   92.0415    2.1939 N.am    1  UNL1       -0.3275
     17 O          64.6356   94.4813    2.7289 O.2     1  UNL1       -0.2736
     18 H          63.2663   91.4070    1.8216 H       1  UNL1        0.1450
     19 H          64.7596   91.7093    2.5873 H       1  UNL1        0.1450
     20 C          61.0460   88.4051    9.4334 C.ar    1  UNL1        0.0663
     21 C          60.4809   89.3853    8.4487 C.ar    1  UNL1        0.0155
     22 C          59.5813   88.9079    7.3473 C.ar    1  UNL1        0.0103
     23 C          59.2470   87.4503    7.2307 C.ar    1  UNL1        0.0212
     24 C          59.8122   86.4701    8.2155 C.ar    1  UNL1        0.0985
     25 N          60.7117   86.9475    9.3168 N.ar    1  UNL1       -0.2479
     26 C          61.8312   90.2866   10.0196 C.3     1  UNL1        0.0145
     27 C          61.9456   88.8825   10.5347 C.3     1  UNL1        0.1226
     28 C          62.0600   87.4784   11.0499 C.3     1  UNL1        0.0145
     29 C          62.8451   89.3598   11.6361 C.3     1  UNL1        0.4020
     30 F          63.7446   89.8372   12.7374 F       1  UNL1       -0.1696
     31 F          63.1837   87.9385   11.9756 F       1  UNL1       -0.1696
     32 F          62.5065   90.7811   11.2966 F       1  UNL1       -0.1696
@<TRIPOS>BOND
     1    26    27    1
     2    27    28    1
     3    27    20    1
     4    20    21   ar
     5    21    22   ar
     6    22     1    1
     7     1     2   ar
     8     2     3   ar
     9     3     4   ar
    10     4     6    1
    11     6     7   am
    12     7     8    2
    13     7     9   am
    14     9    10    1
    15    10    11    1
    16    11    12    1
    17    12    13    1
    18    13    15    1
    19    15    16   am
    20    15    17    2
    21     4     5   ar
    22    22    23   ar
    23    23    24   ar
    24    24    25   ar
    25    27    29    1
    26    29    30    1
    27    29    31    1
    28    29    32    1
    29    25    20   ar
    30     5     1   ar
    31    13     9    1
    32     6    14    1
    33    16    18    1
    34    16    19    1
@<TRIPOS>MOLECULE
*****
 32 34 0 0 0
SMALL
GASTEIGER

@<TRIPOS>ATOM
      1 C          63.4633   86.3770   14.6143 C.ar    1  UNL1        0.0513
      2 C          63.5305   87.2224   15.8515 C.ar    1  UNL1        0.1073
      3 N          63.8342   88.6309   15.4346 N.ar    1  UNL1       -0.2223
      4 C          63.9548   88.6561   13.9396 C.ar    1  UNL1        0.1667
      5 S          63.7255   87.2631   13.4327 S.2     1  UNL1       -0.0513
      6 N          64.2523   89.8623   13.0992 N.am    1  UNL1       -0.2483
      7 C          65.2348   90.8883   13.5811 C.2     1  UNL1        0.3094
      8 O          65.9197   90.7079   14.9033 O.2     1  UNL1       -0.2522
      9 N          65.5323   92.0946   12.7407 N.am    1  UNL1       -0.2572
     10 C          64.9284   92.4087   11.4040 C.3     1  UNL1        0.0955
     11 C          65.5089   93.7068   10.9266 C.3     1  UNL1        0.0238
     12 C          66.4716   94.1950   11.9682 C.3     1  UNL1        0.0310
     13 C          66.4861   93.1986   13.0894 C.3     1  UNL1        0.1528
     14 H          63.8028   89.9807   12.2314 H       1  UNL1        0.1583
     15 C          67.3096   93.2901   14.3397 C.2     1  UNL1        0.2375
     16 N          66.6694   93.7073   15.6306 N.am    1  UNL1       -0.3275
     17 O          68.7732   92.9644   14.2993 O.2     1  UNL1       -0.2736
     18 H          65.7087   93.9211   15.6570 H       1  UNL1        0.1450
     19 H          67.2099   93.7674   16.4512 H       1  UNL1        0.1450
     20 C          63.0194   82.6871   13.2224 C.ar    1  UNL1        0.0663
     21 C          63.2996   84.1599   13.2698 C.ar    1  UNL1        0.0155
     22 C          63.1831   84.9041   14.5669 C.ar    1  UNL1        0.0103
     23 C          62.7864   84.1756   15.8166 C.ar    1  UNL1        0.0212
     24 C          62.5062   82.7028   15.7692 C.ar    1  UNL1        0.0985
     25 N          62.6227   81.9585   14.4721 N.ar    1  UNL1       -0.2479
     26 C          62.7700   80.6671   12.6244 C.3     1  UNL1        0.0145
     27 C          63.1360   81.9428   11.9253 C.3     1  UNL1        0.1226
     28 C          63.5019   83.2185   11.2262 C.3     1  UNL1        0.0145
     29 C          63.2525   81.1985   10.6282 C.3     1  UNL1        0.4020
     30 F          63.3690   80.4543    9.3311 F       1  UNL1       -0.1696
     31 F          63.7793   82.4366    9.9651 F       1  UNL1       -0.1696
     32 F          62.7257   79.9605   11.2912 F       1  UNL1       -0.1696
@<TRIPOS>BOND
     1    26    27    1
     2    27    28    1
     3    27    20    1
     4    20    21   ar
     5    21    22   ar
     6    22     1    1
     7     1     2   ar
     8     2     3   ar
     9     3     4   ar
    10     4     6    1
    11     6     7   am
    12     7     8    2
    13     7     9   am
    14     9    10    1
    15    10    11    1
    16    11    12    1
    17    12    13    1
    18    13    15    1
    19    15    16   am
    20    15    17    2
    21     4     5   ar
    22    22    23   ar
    23    23    24   ar
    24    24    25   ar
    25    27    29    1
    26    29    30    1
    27    29    31    1
    28    29    32    1
    29    25    20   ar
    30     5     1   ar
    31    13     9    1
    32     6    14    1
    33    16    18    1
    34    16    19    1
@<TRIPOS>MOLECULE
*****
 32 34 0 0 0
SMALL
GASTEIGER

@<TRIPOS>ATOM
      1 C          59.2960   90.3444    5.9829 C.ar    1  UNL1        0.0513
      2 C          57.9793   90.9291    5.5651 C.ar    1  UNL1        0.1073
      3 N          58.2450   91.9647    4.5130 N.ar    1  UNL1       -0.2223
      4 C          59.7259   92.0201    4.2805 C.ar    1  UNL1        0.1667
      5 S          60.3754   91.0187    5.1890 S.2     1  UNL1       -0.0513
      6 N          60.4330   92.9191    3.3101 N.am    1  UNL1       -0.2483
      7 C          59.8764   93.1204    1.9318 C.2     1  UNL1        0.3094
      8 O          58.6126   92.4228    1.5240 O.2     1  UNL1       -0.2522
      9 N          60.5835   94.0193    0.9613 N.am    1  UNL1       -0.2572
     10 C          61.8494   94.7795    1.2251 C.3     1  UNL1        0.0955
     11 C          62.1972   95.5460   -0.0165 C.3     1  UNL1        0.0238
     12 C          61.1462   95.2595   -1.0477 C.3     1  UNL1        0.0310
     13 C          60.1489   94.3160   -0.4434 C.3     1  UNL1        0.1528
     14 H          61.2625   93.3769    3.5777 H       1  UNL1        0.1583
     15 C          58.9309   93.7656   -1.1242 C.2     1  UNL1        0.2375
     16 N          58.8912   92.3252   -1.5412 N.am    1  UNL1       -0.3275
     17 O          57.7526   94.6555   -1.3878 O.2     1  UNL1       -0.2736
     18 H          59.6646   91.7412   -1.3681 H       1  UNL1        0.1450
     19 H          58.0918   91.9640   -1.9880 H       1  UNL1        0.1450
     20 C          60.6635   88.4201    9.1730 C.ar    1  UNL1        0.0663
     21 C          60.4616   89.4909    8.1423 C.ar    1  UNL1        0.0155
     22 C          59.4978   89.2735    7.0136 C.ar    1  UNL1        0.0103
     23 C          58.7359   87.9851    6.9157 C.ar    1  UNL1        0.0212
     24 C          58.9378   86.9143    7.9464 C.ar    1  UNL1        0.0985
     25 N          59.9016   87.1317    9.0751 N.ar    1  UNL1       -0.2479
     26 C          61.2571   90.0907   10.3378 C.3     1  UNL1        0.0145
     27 C          61.6273   88.6375   10.3016 C.3     1  UNL1        0.1226
     28 C          61.9975   87.1844   10.2655 C.3     1  UNL1        0.0145
     29 C          62.5911   88.8550   11.4303 C.3     1  UNL1        0.4020
     30 F          63.5548   89.0725   12.5589 F       1  UNL1       -0.1696
     31 F          62.7852   87.3725   11.5501 F       1  UNL1       -0.1696
     32 F          62.3969   90.3376   11.3104 F       1  UNL1       -0.1696
@<TRIPOS>BOND
     1    26    27    1
     2    27    28    1
     3    27    20    1
     4    20    21   ar
     5    21    22   ar
     6    22     1    1
     7     1     2   ar
     8     2     3   ar
     9     3     4   ar
    10     4     6    1
    11     6     7   am
    12     7     8    2
    13     7     9   am
    14     9    10    1
    15    10    11    1
    16    11    12    1
    17    12    13    1
    18    13    15    1
    19    15    16   am
    20    15    17    2
    21     4     5   ar
    22    22    23   ar
    23    23    24   ar
    24    24    25   ar
    25    27    29    1
    26    29    30    1
    27    29    31    1
    28    29    32    1
    29    25    20   ar
    30     5     1   ar
    31    13     9    1
    32     6    14    1
    33    16    18    1
    34    16    19    1
