@<TRIPOS>MOLECULE
*****
 43 46 0 0 0
SMALL
GASTEIGER

@<TRIPOS>ATOM
      1 S          62.3508   89.4221   11.8018 S.3     1  UNL1       -0.1362
      2 C          62.8034   90.8166   12.1189 C.3     1  UNL1        0.0776
      3 C          64.2641   91.1090   12.2952 C.3     1  UNL1        0.0899
      4 C          65.7639   93.1815   11.8420 C.2     1  UNL1        0.4014
      5 O          65.8540   93.4388   13.3171 O.2     1  UNL1       -0.2264
      6 N          64.9689   92.0167   11.3311 N.am    1  UNL1       -0.2711
      7 H          64.9097   91.8478   10.3630 H       1  UNL1        0.1527
      8 O          66.4687   94.0892   10.8780 O.3     1  UNL1       -0.4419
      9 C          67.7326   92.3883   10.7810 C.3     1  UNL1        0.0437
     10 C          67.3972   93.5150    9.8493 C.3     1  UNL1        0.1378
     11 C          67.0618   94.6417    8.9177 C.3     1  UNL1        0.0437
     12 C          68.3257   92.9408    8.8207 C.3     1  UNL1        0.0437
     13 C          65.0199   90.4938   13.4356 C.3     1  UNL1        0.0485
     14 C          64.3088   90.1603   14.7135 C.2     1  UNL1       -0.0003
     15 C          63.7294   91.1469   15.6835 C.2     1  UNL1        0.0942
     16 N          63.1148   90.3779   16.8152 N.2     1  UNL1       -0.2482
     17 C          63.3143   88.9161   16.5447 C.2     1  UNL1        0.0631
     18 C          62.9194   87.6900   17.3134 C.3     1  UNL1        0.0717
     19 C          63.2624   86.3295   16.7831 C.2     1  UNL1       -0.0198
     20 C          64.0004   86.1950   15.4841 C.2     1  UNL1       -0.0042
     21 C          64.3953   87.4210   14.7154 C.2     1  UNL1        0.0006
     22 C          64.0523   88.7816   15.2458 C.2     1  UNL1        0.0115
     23 C          62.0085   89.0476   10.3902 C.3     1  UNL1        0.0864
     24 C          61.0906   87.8918   10.1225 C.3     1  UNL1        0.1575
     25 C          60.2495   87.8740    8.8806 C.2     1  UNL1        0.2414
     26 O          59.6877   86.5789    8.3736 O.2     1  UNL1       -0.2733
     27 N          59.9702   89.1515    8.1457 N.am    1  UNL1       -0.2990
     28 H          60.3389   90.0015    8.4785 H       1  UNL1        0.1498
     29 C          59.1291   89.1337    6.9038 C.3     1  UNL1        0.1179
     30 C          59.2338   90.2534    5.9111 C.ar    1  UNL1        0.0166
     31 C          60.5719   90.6385    5.3532 C.ar    1  UNL1        0.0005
     32 C          60.6765   91.7581    4.3605 C.ar    1  UNL1        0.0204
     33 C          59.4430   92.4926    3.9256 C.ar    1  UNL1        0.0989
     34 N          58.1049   92.1075    4.4834 N.ar    1  UNL1       -0.2426
     35 C          58.0003   90.9879    5.4761 C.ar    1  UNL1        0.0962
     36 N          61.0138   86.7537   11.0966 N.pl3   1  UNL1       -0.3263
     37 H          60.2999   86.7330   11.7741 H       1  UNL1        0.1472
     38 C          62.0248   85.6471   11.0384 C.ar    1  UNL1        0.0449
     39 C          62.4601   84.9620   12.2998 C.ar    1  UNL1        0.0143
     40 C          63.4710   83.8554   12.2418 C.ar    1  UNL1        0.0013
     41 C          64.0467   83.4340   10.9223 C.ar    1  UNL1        0.0001
     42 C          63.6115   84.1192    9.6609 C.ar    1  UNL1        0.0013
     43 C          62.6005   85.2257    9.7190 C.ar    1  UNL1        0.0143
@<TRIPOS>BOND
     1     9    10    1
     2    10    11    1
     3    10    12    1
     4    10     8    1
     5     8     4    1
     6     4     5    2
     7     4     6   am
     8     6     3    1
     9     3     2    1
    10     2     1    1
    11     1    23    1
    12    23    24    1
    13    24    36    1
    14    36    38    1
    15    38    39   ar
    16    39    40   ar
    17    40    41   ar
    18    41    42   ar
    19    42    43   ar
    20    24    25    1
    21    25    26    2
    22    25    27   am
    23    27    29    1
    24    29    30    1
    25    30    31   ar
    26    31    32   ar
    27    32    33   ar
    28    33    34   ar
    29    34    35   ar
    30     3    13    1
    31    13    14    1
    32    14    15    2
    33    15    16    1
    34    16    17    2
    35    17    18    1
    36    18    19    1
    37    19    20    2
    38    20    21    1
    39    21    22    2
    40    43    38   ar
    41    35    30   ar
    42    22    14    1
    43    22    17    1
    44     6     7    1
    45    36    37    1
    46    27    28    1
@<TRIPOS>MOLECULE
*****
 43 46 0 0 0
SMALL
GASTEIGER

@<TRIPOS>ATOM
      1 S          62.9638   90.0168   11.3744 S.3     1  UNL1       -0.1362
      2 C          63.3248   91.2050   12.2156 C.3     1  UNL1        0.0776
      3 C          64.7589   91.4646   12.5705 C.3     1  UNL1        0.0899
      4 C          66.2117   93.6123   12.4057 C.2     1  UNL1        0.4014
      5 O          66.0373   93.8431   13.8776 O.2     1  UNL1       -0.2264
      6 N          65.5725   92.4230   11.7522 N.am    1  UNL1       -0.2711
      7 H          65.6869   92.2715   10.7862 H       1  UNL1        0.1527
      8 O          67.0252   94.5707   11.5874 O.3     1  UNL1       -0.4419
      9 C          66.8060   94.5123    9.4783 C.3     1  UNL1        0.0437
     10 C          66.3551   95.4413   10.5662 C.3     1  UNL1        0.1378
     11 C          65.9043   96.3704   11.6542 C.3     1  UNL1        0.0437
     12 C          65.6851   96.3120    9.5450 C.3     1  UNL1        0.0437
     13 C          65.3795   90.7658   13.7439 C.3     1  UNL1        0.0485
     14 C          64.5325   90.3773   14.9193 C.2     1  UNL1       -0.0003
     15 C          63.8706   91.3208   15.8793 C.2     1  UNL1        0.0942
     16 N          63.1277   90.5037   16.8944 N.2     1  UNL1       -0.2482
     17 C          63.3305   89.0551   16.5618 C.2     1  UNL1        0.0631
     18 C          62.8367   87.7972   17.2127 C.3     1  UNL1        0.0717
     19 C          63.2111   86.4611   16.6429 C.2     1  UNL1       -0.0198
     20 C          64.0794   86.3830   15.4222 C.2     1  UNL1       -0.0042
     21 C          64.5731   87.6409   14.7713 C.2     1  UNL1        0.0006
     22 C          64.1987   88.9770   15.3411 C.2     1  UNL1        0.0115
     23 C          62.8365   88.6620   12.0056 C.3     1  UNL1        0.0864
     24 C          61.9616   87.6197   11.3744 C.3     1  UNL1        0.1575
     25 C          62.5294   86.2765   11.0231 C.2     1  UNL1        0.2414
     26 O          62.6758   85.8770    9.5847 O.2     1  UNL1       -0.2733
     27 N          62.9507   85.3328   12.1103 N.am    1  UNL1       -0.2990
     28 H          62.8545   85.5950   13.0543 H       1  UNL1        0.1498
     29 C          63.5185   83.9896   11.7590 C.3     1  UNL1        0.1179
     30 C          63.0407   82.7622   12.4771 C.ar    1  UNL1        0.0166
     31 C          63.0332   81.4372   11.7741 C.ar    1  UNL1        0.0005
     32 C          62.5554   80.2100   12.4922 C.ar    1  UNL1        0.0204
     33 C          62.0853   80.3078   13.9132 C.ar    1  UNL1        0.0989
     34 N          62.0928   81.6328   14.6162 N.ar    1  UNL1       -0.2426
     35 C          62.5705   82.8600   13.8981 C.ar    1  UNL1        0.0962
     36 N          60.5190   87.9206   11.0946 N.pl3   1  UNL1       -0.3263
     37 H          59.8868   88.0368   11.8402 H       1  UNL1        0.1472
     38 C          60.0397   88.0446    9.6787 C.ar    1  UNL1        0.0449
     39 C          60.1730   89.3509    8.9535 C.ar    1  UNL1        0.0143
     40 C          59.6937   89.4750    7.5375 C.ar    1  UNL1        0.0013
     41 C          59.0810   88.2928    6.8468 C.ar    1  UNL1        0.0001
     42 C          58.9477   86.9866    7.5720 C.ar    1  UNL1        0.0013
     43 C          59.4270   86.8625    8.9880 C.ar    1  UNL1        0.0143
@<TRIPOS>BOND
     1     9    10    1
     2    10    11    1
     3    10    12    1
     4    10     8    1
     5     8     4    1
     6     4     5    2
     7     4     6   am
     8     6     3    1
     9     3     2    1
    10     2     1    1
    11     1    23    1
    12    23    24    1
    13    24    36    1
    14    36    38    1
    15    38    39   ar
    16    39    40   ar
    17    40    41   ar
    18    41    42   ar
    19    42    43   ar
    20    24    25    1
    21    25    26    2
    22    25    27   am
    23    27    29    1
    24    29    30    1
    25    30    31   ar
    26    31    32   ar
    27    32    33   ar
    28    33    34   ar
    29    34    35   ar
    30     3    13    1
    31    13    14    1
    32    14    15    2
    33    15    16    1
    34    16    17    2
    35    17    18    1
    36    18    19    1
    37    19    20    2
    38    20    21    1
    39    21    22    2
    40    43    38   ar
    41    35    30   ar
    42    22    14    1
    43    22    17    1
    44     6     7    1
    45    36    37    1
    46    27    28    1
@<TRIPOS>MOLECULE
*****
 43 46 0 0 0
SMALL
GASTEIGER

@<TRIPOS>ATOM
      1 S          62.9210   90.0555   10.1391 S.3     1  UNL1       -0.1362
      2 C          63.3127   91.4918   10.3219 C.3     1  UNL1        0.0776
      3 C          64.3347   91.8648   11.3545 C.3     1  UNL1        0.0899
      4 C          66.3710   93.3453   10.7130 C.2     1  UNL1        0.4014
      5 O          67.0804   92.1372   10.1768 O.2     1  UNL1       -0.2264
      6 N          64.9982   93.2090   11.3018 N.am    1  UNL1       -0.2711
      7 H          64.5326   94.0019   11.6537 H       1  UNL1        0.1527
      8 O          67.0345   94.6895   10.6602 O.3     1  UNL1       -0.4419
      9 C          67.5518   94.9778    8.6233 C.3     1  UNL1        0.0437
     10 C          66.6489   95.6750    9.5972 C.3     1  UNL1        0.1378
     11 C          65.7459   96.3722   10.5712 C.3     1  UNL1        0.0437
     12 C          66.2633   96.6605    8.5342 C.3     1  UNL1        0.0437
     13 C          64.6933   90.8934   12.4400 C.3     1  UNL1        0.0485
     14 C          65.0171   91.3932   13.8167 C.2     1  UNL1       -0.0003
     15 C          64.0464   91.5468   14.9499 C.2     1  UNL1        0.0942
     16 N          64.7979   92.0756   16.1355 N.2     1  UNL1       -0.2482
     17 C          66.2331   92.2489   15.7350 C.2     1  UNL1        0.0631
     18 C          67.4340   92.7362   16.4901 C.3     1  UNL1        0.0717
     19 C          68.7704   92.8017   15.8122 C.2     1  UNL1       -0.0198
     20 C          68.9059   92.3799   14.3791 C.2     1  UNL1       -0.0042
     21 C          67.7049   91.8926   13.6239 C.2     1  UNL1        0.0006
     22 C          66.3685   91.8271   14.3019 C.2     1  UNL1        0.0115
     23 C          61.7925   89.4781   10.9410 C.3     1  UNL1        0.0864
     24 C          61.6075   87.9912   11.0130 C.3     1  UNL1        0.1575
     25 C          62.4171   87.1807   11.9814 C.2     1  UNL1        0.2414
     26 O          63.4766   87.8427   12.8114 O.2     1  UNL1       -0.2733
     27 N          62.1671   85.7082   12.1196 N.am    1  UNL1       -0.2990
     28 H          61.4717   85.2736   11.5747 H       1  UNL1        0.1498
     29 C          62.9767   84.8977   13.0879 C.3     1  UNL1        0.1179
     30 C          62.8030   83.4089   13.1489 C.ar    1  UNL1        0.0166
     31 C          63.0497   82.5744   11.9271 C.ar    1  UNL1        0.0005
     32 C          62.8760   81.0858   11.9882 C.ar    1  UNL1        0.0204
     33 C          62.4556   80.4317   13.2709 C.ar    1  UNL1        0.0989
     34 N          62.2090   81.2662   14.4927 N.ar    1  UNL1       -0.2426
     35 C          62.3827   82.7548   14.4316 C.ar    1  UNL1        0.0962
     36 N          60.6129   87.3149   10.1167 N.pl3   1  UNL1       -0.3263
     37 H          59.6483   87.4308   10.2758 H       1  UNL1        0.1472
     38 C          61.0879   86.4619    8.9780 C.ar    1  UNL1        0.0449
     39 C          60.1353   86.0666    7.8888 C.ar    1  UNL1        0.0143
     40 C          60.6102   85.2137    6.7501 C.ar    1  UNL1        0.0013
     41 C          62.0378   84.7560    6.7004 C.ar    1  UNL1        0.0001
     42 C          62.9905   85.1513    7.7896 C.ar    1  UNL1        0.0013
     43 C          62.5155   86.0042    8.9283 C.ar    1  UNL1        0.0143
@<TRIPOS>BOND
     1     9    10    1
     2    10    11    1
     3    10    12    1
     4    10     8    1
     5     8     4    1
     6     4     5    2
     7     4     6   am
     8     6     3    1
     9     3     2    1
    10     2     1    1
    11     1    23    1
    12    23    24    1
    13    24    36    1
    14    36    38    1
    15    38    39   ar
    16    39    40   ar
    17    40    41   ar
    18    41    42   ar
    19    42    43   ar
    20    24    25    1
    21    25    26    2
    22    25    27   am
    23    27    29    1
    24    29    30    1
    25    30    31   ar
    26    31    32   ar
    27    32    33   ar
    28    33    34   ar
    29    34    35   ar
    30     3    13    1
    31    13    14    1
    32    14    15    2
    33    15    16    1
    34    16    17    2
    35    17    18    1
    36    18    19    1
    37    19    20    2
    38    20    21    1
    39    21    22    2
    40    43    38   ar
    41    35    30   ar
    42    22    14    1
    43    22    17    1
    44     6     7    1
    45    36    37    1
    46    27    28    1
@<TRIPOS>MOLECULE
*****
 43 46 0 0 0
SMALL
GASTEIGER

@<TRIPOS>ATOM
      1 S          61.7085   89.6679   12.0604 S.3     1  UNL1       -0.1362
      2 C          63.0711   89.0470   12.1477 C.3     1  UNL1        0.0776
      3 C          63.7544   88.9216   13.4771 C.3     1  UNL1        0.0899
      4 C          63.8847   87.1689   15.3905 C.2     1  UNL1        0.4014
      5 O          63.1615   88.1131   16.3046 O.2     1  UNL1       -0.2264
      6 N          64.1811   87.5732   13.9768 N.am    1  UNL1       -0.2711
      7 H          64.6558   86.9535   13.3769 H       1  UNL1        0.1527
      8 O          64.3115   85.8205   15.8902 O.3     1  UNL1       -0.4419
      9 C          64.8234   84.2727   14.5329 C.3     1  UNL1        0.0437
     10 C          63.6293   84.5834   15.3859 C.3     1  UNL1        0.1378
     11 C          62.4353   84.8941   16.2389 C.3     1  UNL1        0.0437
     12 C          62.9473   83.3464   14.8816 C.3     1  UNL1        0.0437
     13 C          64.0109   90.1446   14.3069 C.3     1  UNL1        0.0485
     14 C          65.1647   91.0452   13.9787 C.2     1  UNL1       -0.0003
     15 C          66.3535   91.3098   14.8544 C.2     1  UNL1        0.0942
     16 N          67.2558   92.2674   14.1341 N.2     1  UNL1       -0.2482
     17 C          66.6247   92.5946   12.8132 C.2     1  UNL1        0.0631
     18 C          67.0599   93.4827   11.6855 C.3     1  UNL1        0.0717
     19 C          66.2027   93.6155   10.4618 C.2     1  UNL1       -0.0198
     20 C          64.9103   92.8601   10.3658 C.2     1  UNL1       -0.0042
     21 C          64.4752   91.9720   11.4935 C.2     1  UNL1        0.0006
     22 C          65.3323   91.8392   12.7172 C.2     1  UNL1        0.0115
     23 C          60.9455   89.6238   10.7698 C.3     1  UNL1        0.0864
     24 C          60.4215   88.3168   10.2526 C.3     1  UNL1        0.1575
     25 C          59.7062   88.2640    8.9352 C.2     1  UNL1        0.2414
     26 O          58.8041   87.1086    8.6173 O.2     1  UNL1       -0.2733
     27 N          59.8932   89.3667    7.9357 N.am    1  UNL1       -0.2990
     28 H          60.4854   90.1251    8.1443 H       1  UNL1        0.1498
     29 C          59.1780   89.3140    6.6182 C.3     1  UNL1        0.1179
     30 C          59.3363   90.4344    5.6334 C.ar    1  UNL1        0.0166
     31 C          60.6903   90.7543    5.0727 C.ar    1  UNL1        0.0005
     32 C          60.8486   91.8746    4.0880 C.ar    1  UNL1        0.0204
     33 C          59.6530   92.6751    3.6640 C.ar    1  UNL1        0.0989
     34 N          58.2990   92.3552    4.2247 N.ar    1  UNL1       -0.2426
     35 C          58.1407   91.2349    5.2094 C.ar    1  UNL1        0.0962
     36 N          60.6128   87.0626   11.0529 N.pl3   1  UNL1       -0.3263
     37 H          60.0712   86.9063   11.8600 H       1  UNL1        0.1472
     38 C          61.6293   86.0466   10.6235 C.ar    1  UNL1        0.0449
     39 C          62.1141   86.0244    9.2042 C.ar    1  UNL1        0.0143
     40 C          63.1306   85.0083    8.7747 C.ar    1  UNL1        0.0013
     41 C          63.6622   84.0146    9.7646 C.ar    1  UNL1        0.0001
     42 C          63.1773   84.0368   11.1839 C.ar    1  UNL1        0.0013
     43 C          62.1609   85.0528   11.6133 C.ar    1  UNL1        0.0143
@<TRIPOS>BOND
     1     9    10    1
     2    10    11    1
     3    10    12    1
     4    10     8    1
     5     8     4    1
     6     4     5    2
     7     4     6   am
     8     6     3    1
     9     3     2    1
    10     2     1    1
    11     1    23    1
    12    23    24    1
    13    24    36    1
    14    36    38    1
    15    38    39   ar
    16    39    40   ar
    17    40    41   ar
    18    41    42   ar
    19    42    43   ar
    20    24    25    1
    21    25    26    2
    22    25    27   am
    23    27    29    1
    24    29    30    1
    25    30    31   ar
    26    31    32   ar
    27    32    33   ar
    28    33    34   ar
    29    34    35   ar
    30     3    13    1
    31    13    14    1
    32    14    15    2
    33    15    16    1
    34    16    17    2
    35    17    18    1
    36    18    19    1
    37    19    20    2
    38    20    21    1
    39    21    22    2
    40    43    38   ar
    41    35    30   ar
    42    22    14    1
    43    22    17    1
    44     6     7    1
    45    36    37    1
    46    27    28    1
@<TRIPOS>MOLECULE
*****
 43 46 0 0 0
SMALL
GASTEIGER

@<TRIPOS>ATOM
      1 S          62.8933   89.3677   11.8529 S.3     1  UNL1       -0.1362
      2 C          63.3475   87.9621   12.1133 C.3     1  UNL1        0.0776
      3 C          62.3486   86.8433   12.1361 C.3     1  UNL1        0.0899
      4 C          60.9835   86.9942    9.9307 C.2     1  UNL1        0.4014
      5 O          62.2472   86.8380    9.1379 O.2     1  UNL1       -0.2264
      6 N          61.0342   86.9968   11.4298 N.am    1  UNL1       -0.2711
      7 H          60.2048   87.0994   11.9502 H       1  UNL1        0.1527
      8 O          59.6691   87.1477    9.2244 O.3     1  UNL1       -0.4419
      9 C          59.9800   89.2303    8.9670 C.3     1  UNL1        0.0437
     10 C          59.5417   88.1053    8.0769 C.3     1  UNL1        0.1378
     11 C          59.1035   86.9803    7.1868 C.3     1  UNL1        0.0437
     12 C          59.4144   89.0629    6.9294 C.3     1  UNL1        0.0437
     13 C          62.6641   85.5709   12.8652 C.3     1  UNL1        0.0485
     14 C          62.9240   84.3100   12.0954 C.2     1  UNL1       -0.0003
     15 C          63.4720   84.2250   10.7017 C.2     1  UNL1        0.0942
     16 N          63.5681   82.7752   10.3291 N.2     1  UNL1       -0.2482
     17 C          63.0796   81.9642   11.4925 C.2     1  UNL1        0.0631
     18 C          62.9459   80.4845   11.6989 C.3     1  UNL1        0.0717
     19 C          62.4140   79.9534   12.9969 C.2     1  UNL1       -0.0198
     20 C          62.0159   80.9019   14.0886 C.2     1  UNL1       -0.0042
     21 C          62.1497   82.3816   13.8822 C.2     1  UNL1        0.0006
     22 C          62.6815   82.9127   12.5842 C.2     1  UNL1        0.0115
     23 C          62.5899   90.2828   13.0021 C.3     1  UNL1        0.0864
     24 C          63.5600   90.4054   14.1396 C.3     1  UNL1        0.1575
     25 C          64.8958   91.0515   13.9199 C.2     1  UNL1        0.2414
     26 O          66.0658   90.6650   14.7753 O.2     1  UNL1       -0.2733
     27 N          65.0614   92.0842   12.8446 N.am    1  UNL1       -0.2990
     28 H          64.2935   92.3379   12.2832 H       1  UNL1        0.1498
     29 C          66.3972   92.7303   12.6248 C.3     1  UNL1        0.1179
     30 C          66.7642   93.2507   11.2666 C.ar    1  UNL1        0.0166
     31 C          67.6686   92.4510   10.3763 C.ar    1  UNL1        0.0005
     32 C          68.0356   92.9713    9.0182 C.ar    1  UNL1        0.0204
     33 C          67.4983   94.2913    8.5504 C.ar    1  UNL1        0.0989
     34 N          66.5939   95.0910    9.4407 N.ar    1  UNL1       -0.2426
     35 C          66.2269   94.5707   10.7988 C.ar    1  UNL1        0.0962
     36 N          63.1944   89.8818   15.4969 N.pl3   1  UNL1       -0.3263
     37 H          62.8044   90.4863   16.1690 H       1  UNL1        0.1472
     38 C          63.4231   88.4373   15.8302 C.ar    1  UNL1        0.0449
     39 C          64.3913   87.6254   15.0220 C.ar    1  UNL1        0.0143
     40 C          64.6200   86.1809   15.3552 C.ar    1  UNL1        0.0013
     41 C          63.8805   85.5483   16.4967 C.ar    1  UNL1        0.0001
     42 C          62.9122   86.3603   17.3049 C.ar    1  UNL1        0.0013
     43 C          62.6835   87.8048   16.9717 C.ar    1  UNL1        0.0143
@<TRIPOS>BOND
     1     9    10    1
     2    10    11    1
     3    10    12    1
     4    10     8    1
     5     8     4    1
     6     4     5    2
     7     4     6   am
     8     6     3    1
     9     3     2    1
    10     2     1    1
    11     1    23    1
    12    23    24    1
    13    24    36    1
    14    36    38    1
    15    38    39   ar
    16    39    40   ar
    17    40    41   ar
    18    41    42   ar
    19    42    43   ar
    20    24    25    1
    21    25    26    2
    22    25    27   am
    23    27    29    1
    24    29    30    1
    25    30    31   ar
    26    31    32   ar
    27    32    33   ar
    28    33    34   ar
    29    34    35   ar
    30     3    13    1
    31    13    14    1
    32    14    15    2
    33    15    16    1
    34    16    17    2
    35    17    18    1
    36    18    19    1
    37    19    20    2
    38    20    21    1
    39    21    22    2
    40    43    38   ar
    41    35    30   ar
    42    22    14    1
    43    22    17    1
    44     6     7    1
    45    36    37    1
    46    27    28    1
@<TRIPOS>MOLECULE
*****
 43 46 0 0 0
SMALL
GASTEIGER

@<TRIPOS>ATOM
      1 S          62.2607   90.6129   10.9513 S.3     1  UNL1       -0.1362
      2 C          62.8104   90.9098   12.3150 C.3     1  UNL1        0.0776
      3 C          64.2812   91.1412   12.4966 C.3     1  UNL1        0.0899
      4 C          65.9205   93.0944   11.9988 C.2     1  UNL1        0.4014
      5 O          66.0528   93.3581   13.4696 O.2     1  UNL1       -0.2264
      6 N          65.0347   91.9860   11.5124 N.am    1  UNL1       -0.2711
      7 H          64.9479   91.8129   10.5471 H       1  UNL1        0.1527
      8 O          66.6740   93.9392   11.0147 O.3     1  UNL1       -0.4419
      9 C          67.1401   94.3808    8.9929 C.3     1  UNL1        0.0437
     10 C          67.5089   93.2882    9.9521 C.3     1  UNL1        0.1378
     11 C          67.8778   92.1956   10.9113 C.3     1  UNL1        0.0437
     12 C          68.3438   92.6373    8.8894 C.3     1  UNL1        0.0437
     13 C          64.9987   90.5279   13.6625 C.3     1  UNL1        0.0485
     14 C          64.2367   90.1527   14.8989 C.2     1  UNL1       -0.0003
     15 C          63.5457   91.1032   15.8311 C.2     1  UNL1        0.0942
     16 N          62.9140   90.2991   16.9285 N.2     1  UNL1       -0.2482
     17 C          63.2146   88.8516   16.6746 C.2     1  UNL1        0.0631
     18 C          62.8495   87.6043   17.4235 C.3     1  UNL1        0.0717
     19 C          63.3020   86.2665   16.9180 C.2     1  UNL1       -0.0198
     20 C          64.1195   86.1761   15.6636 C.2     1  UNL1       -0.0042
     21 C          64.4845   87.4234   14.9147 C.2     1  UNL1        0.0006
     22 C          64.0321   88.7612   15.4202 C.2     1  UNL1        0.0115
     23 C          62.6972   89.3786   10.2192 C.3     1  UNL1        0.0864
     24 C          62.0282   88.0652   10.4980 C.3     1  UNL1        0.1575
     25 C          62.4392   87.2521   11.6896 C.2     1  UNL1        0.2414
     26 O          63.5681   87.7167   12.5613 O.2     1  UNL1       -0.2733
     27 N          61.7212   85.9746   12.0095 N.am    1  UNL1       -0.2990
     28 H          60.9803   85.6697   11.4374 H       1  UNL1        0.1498
     29 C          62.1323   85.1616   13.2012 C.3     1  UNL1        0.1179
     30 C          62.5401   83.7286   13.0269 C.ar    1  UNL1        0.0166
     31 C          62.6297   83.1362   11.6517 C.ar    1  UNL1        0.0005
     32 C          63.0376   81.7033   11.4775 C.ar    1  UNL1        0.0204
     33 C          63.3559   80.8627   12.6784 C.ar    1  UNL1        0.0989
     34 N          63.2663   81.4551   14.0536 N.ar    1  UNL1       -0.2426
     35 C          62.8585   82.8880   14.2278 C.ar    1  UNL1        0.0962
     36 N          60.9482   87.5650    9.5851 N.pl3   1  UNL1       -0.3263
     37 H          60.0341   87.9223    9.6619 H       1  UNL1        0.1472
     38 C          61.2609   86.5203    8.5552 C.ar    1  UNL1        0.0449
     39 C          62.6402   85.9365    8.4740 C.ar    1  UNL1        0.0143
     40 C          62.9530   84.8918    7.4441 C.ar    1  UNL1        0.0013
     41 C          61.8865   84.4308    6.4954 C.ar    1  UNL1        0.0001
     42 C          60.5071   85.0146    6.5766 C.ar    1  UNL1        0.0013
     43 C          60.1943   86.0593    7.6065 C.ar    1  UNL1        0.0143
@<TRIPOS>BOND
     1     9    10    1
     2    10    11    1
     3    10    12    1
     4    10     8    1
     5     8     4    1
     6     4     5    2
     7     4     6   am
     8     6     3    1
     9     3     2    1
    10     2     1    1
    11     1    23    1
    12    23    24    1
    13    24    36    1
    14    36    38    1
    15    38    39   ar
    16    39    40   ar
    17    40    41   ar
    18    41    42   ar
    19    42    43   ar
    20    24    25    1
    21    25    26    2
    22    25    27   am
    23    27    29    1
    24    29    30    1
    25    30    31   ar
    26    31    32   ar
    27    32    33   ar
    28    33    34   ar
    29    34    35   ar
    30     3    13    1
    31    13    14    1
    32    14    15    2
    33    15    16    1
    34    16    17    2
    35    17    18    1
    36    18    19    1
    37    19    20    2
    38    20    21    1
    39    21    22    2
    40    43    38   ar
    41    35    30   ar
    42    22    14    1
    43    22    17    1
    44     6     7    1
    45    36    37    1
    46    27    28    1
@<TRIPOS>MOLECULE
*****
 43 46 0 0 0
SMALL
GASTEIGER

@<TRIPOS>ATOM
      1 S          64.4857   87.8682   14.4743 S.3     1  UNL1       -0.1362
      2 C          63.9264   86.4926   14.2622 C.3     1  UNL1        0.0776
      3 C          63.1075   86.1961   13.0410 C.3     1  UNL1        0.0899
      4 C          62.8710   83.7107   12.3219 C.2     1  UNL1        0.4014
      5 O          64.2556   83.7456   11.7461 O.2     1  UNL1       -0.2264
      6 N          62.2969   84.9360   12.9693 N.am    1  UNL1       -0.2711
      7 H          61.3881   84.9131   13.3472 H       1  UNL1        0.1527
      8 O          62.0604   82.4507   12.2501 O.3     1  UNL1       -0.4419
      9 C          61.9788   81.9351   14.3062 C.3     1  UNL1        0.0437
     10 C          62.4616   81.2537   13.0602 C.3     1  UNL1        0.1378
     11 C          62.9445   80.5723   11.8142 C.3     1  UNL1        0.0437
     12 C          62.8629   80.0568   13.8704 C.3     1  UNL1        0.0437
     13 C          63.0992   87.1597   11.8913 C.3     1  UNL1        0.0485
     14 C          61.9740   87.1344   10.8997 C.2     1  UNL1       -0.0003
     15 C          60.6647   87.8540   11.0333 C.2     1  UNL1        0.0942
     16 N          59.8422   87.5494    9.8165 N.2     1  UNL1       -0.2482
     17 C          60.6431   86.6416    8.9308 C.2     1  UNL1        0.0631
     18 C          60.3430   86.0154    7.6013 C.3     1  UNL1        0.0717
     19 C          61.3604   85.1328    6.9412 C.2     1  UNL1       -0.0198
     20 C          62.6780   84.8763    7.6107 C.2     1  UNL1       -0.0042
     21 C          62.9781   85.5025    8.9402 C.2     1  UNL1        0.0006
     22 C          61.9607   86.3851    9.6003 C.2     1  UNL1        0.0115
     23 C          63.5614   89.0242   14.7177 C.3     1  UNL1        0.0864
     24 C          64.0067   90.4207   14.3984 C.3     1  UNL1        0.1575
     25 C          63.8616   90.9538   13.0039 C.2     1  UNL1        0.2414
     26 O          62.7189   90.5023   12.1435 O.2     1  UNL1       -0.2733
     27 N          64.8593   91.9384   12.4699 N.am    1  UNL1       -0.2990
     28 H          65.6093   92.2347   13.0346 H       1  UNL1        0.1498
     29 C          64.7141   92.4715   11.0753 C.3     1  UNL1        0.1179
     30 C          65.8831   93.1203   10.3950 C.ar    1  UNL1        0.0166
     31 C          67.1180   92.3212   10.1010 C.ar    1  UNL1        0.0005
     32 C          68.2868   92.9700    9.4207 C.ar    1  UNL1        0.0204
     33 C          68.2207   94.4179    9.0343 C.ar    1  UNL1        0.0989
     34 N          66.9858   95.2170    9.3283 N.ar    1  UNL1       -0.2426
     35 C          65.8170   94.5682   10.0086 C.ar    1  UNL1        0.0962
     36 N          64.5971   91.2839   15.4737 N.pl3   1  UNL1       -0.3263
     37 H          64.0584   91.5269   16.2611 H       1  UNL1        0.1472
     38 C          66.0083   91.7769   15.3494 C.ar    1  UNL1        0.0449
     39 C          66.5111   92.8510   16.2679 C.ar    1  UNL1        0.0143
     40 C          67.9222   93.3440   16.1437 C.ar    1  UNL1        0.0013
     41 C          68.8306   92.7630   15.1010 C.ar    1  UNL1        0.0001
     42 C          68.3279   91.6890   14.1825 C.ar    1  UNL1        0.0013
     43 C          66.9167   91.1959   14.3067 C.ar    1  UNL1        0.0143
@<TRIPOS>BOND
     1     9    10    1
     2    10    11    1
     3    10    12    1
     4    10     8    1
     5     8     4    1
     6     4     5    2
     7     4     6   am
     8     6     3    1
     9     3     2    1
    10     2     1    1
    11     1    23    1
    12    23    24    1
    13    24    36    1
    14    36    38    1
    15    38    39   ar
    16    39    40   ar
    17    40    41   ar
    18    41    42   ar
    19    42    43   ar
    20    24    25    1
    21    25    26    2
    22    25    27   am
    23    27    29    1
    24    29    30    1
    25    30    31   ar
    26    31    32   ar
    27    32    33   ar
    28    33    34   ar
    29    34    35   ar
    30     3    13    1
    31    13    14    1
    32    14    15    2
    33    15    16    1
    34    16    17    2
    35    17    18    1
    36    18    19    1
    37    19    20    2
    38    20    21    1
    39    21    22    2
    40    43    38   ar
    41    35    30   ar
    42    22    14    1
    43    22    17    1
    44     6     7    1
    45    36    37    1
    46    27    28    1
@<TRIPOS>MOLECULE
*****
 43 46 0 0 0
SMALL
GASTEIGER

@<TRIPOS>ATOM
      1 S          62.3805   85.4703   10.1332 S.3     1  UNL1       -0.1362
      2 C          61.9050   85.4385   11.5554 C.3     1  UNL1        0.0776
      3 C          62.7358   84.7680   12.6091 C.3     1  UNL1        0.0899
      4 C          63.9166   85.2407   14.8745 C.2     1  UNL1        0.4014
      5 O          65.2132   84.7508   14.3008 O.2     1  UNL1       -0.2264
      6 N          62.6780   85.2492   14.0286 N.am    1  UNL1       -0.2711
      7 H          61.8270   85.5707   14.4051 H       1  UNL1        0.1527
      8 O          63.8588   85.7219   16.2940 O.3     1  UNL1       -0.4419
      9 C          64.1849   87.6136   15.3914 C.3     1  UNL1        0.0437
     10 C          63.4292   87.1277   16.5925 C.3     1  UNL1        0.1378
     11 C          62.6734   86.6417   17.7936 C.3     1  UNL1        0.0437
     12 C          62.9995   88.5335   16.8908 C.3     1  UNL1        0.0437
     13 C          63.6244   83.6161   12.2432 C.3     1  UNL1        0.0485
     14 C          63.2572   82.2232   12.6615 C.2     1  UNL1       -0.0003
     15 C          63.0131   81.7603   14.0673 C.2     1  UNL1        0.0942
     16 N          62.6747   80.2997   14.0221 N.2     1  UNL1       -0.2482
     17 C          62.7095   79.8599   12.5884 C.2     1  UNL1        0.0631
     18 C          62.4600   78.5306   11.9400 C.3     1  UNL1        0.0717
     19 C          62.5704   78.3900   10.4507 C.2     1  UNL1       -0.0198
     20 C          62.9304   79.5789    9.6098 C.2     1  UNL1       -0.0042
     21 C          63.1800   80.9082   10.2583 C.2     1  UNL1        0.0006
     22 C          63.0695   81.0488   11.7475 C.2     1  UNL1        0.0115
     23 C          62.3249   86.7498    9.3523 C.3     1  UNL1        0.0864
     24 C          61.2060   87.7217    9.5837 C.3     1  UNL1        0.1575
     25 C          60.1586   87.9245    8.5294 C.2     1  UNL1        0.2414
     26 O          59.2351   86.8005    8.1636 O.2     1  UNL1       -0.2733
     27 N          60.0347   89.2513    7.8408 N.am    1  UNL1       -0.2990
     28 H          60.6408   89.9891    8.0808 H       1  UNL1        0.1498
     29 C          58.9872   89.4541    6.7864 C.3     1  UNL1        0.1179
     30 C          59.1813   90.4987    5.7274 C.ar    1  UNL1        0.0166
     31 C          60.5534   90.7724    5.1866 C.ar    1  UNL1        0.0005
     32 C          60.7475   91.8169    4.1277 C.ar    1  UNL1        0.0204
     33 C          59.5695   92.5877    3.6096 C.ar    1  UNL1        0.0989
     34 N          58.1975   92.3139    4.1504 N.ar    1  UNL1       -0.2426
     35 C          58.0034   91.2694    5.2093 C.ar    1  UNL1        0.0962
     36 N          61.1347   88.4909   10.8695 N.pl3   1  UNL1       -0.3263
     37 H          60.3969   88.3274   11.5006 H       1  UNL1        0.1472
     38 C          62.1873   89.5090   11.1939 C.ar    1  UNL1        0.0449
     39 C          62.8519   89.4983   12.5386 C.ar    1  UNL1        0.0143
     40 C          63.9046   90.5164   12.8631 C.ar    1  UNL1        0.0013
     41 C          64.2926   91.5453   11.8429 C.ar    1  UNL1        0.0001
     42 C          63.6280   91.5560   10.4982 C.ar    1  UNL1        0.0013
     43 C          62.5754   90.5379   10.1737 C.ar    1  UNL1        0.0143
@<TRIPOS>BOND
     1     9    10    1
     2    10    11    1
     3    10    12    1
     4    10     8    1
     5     8     4    1
     6     4     5    2
     7     4     6   am
     8     6     3    1
     9     3     2    1
    10     2     1    1
    11     1    23    1
    12    23    24    1
    13    24    36    1
    14    36    38    1
    15    38    39   ar
    16    39    40   ar
    17    40    41   ar
    18    41    42   ar
    19    42    43   ar
    20    24    25    1
    21    25    26    2
    22    25    27   am
    23    27    29    1
    24    29    30    1
    25    30    31   ar
    26    31    32   ar
    27    32    33   ar
    28    33    34   ar
    29    34    35   ar
    30     3    13    1
    31    13    14    1
    32    14    15    2
    33    15    16    1
    34    16    17    2
    35    17    18    1
    36    18    19    1
    37    19    20    2
    38    20    21    1
    39    21    22    2
    40    43    38   ar
    41    35    30   ar
    42    22    14    1
    43    22    17    1
    44     6     7    1
    45    36    37    1
    46    27    28    1
@<TRIPOS>MOLECULE
*****
 43 46 0 0 0
SMALL
GASTEIGER

@<TRIPOS>ATOM
      1 S          64.1961   88.1991   13.9042 S.3     1  UNL1       -0.1362
      2 C          63.4409   87.8424   12.6583 C.3     1  UNL1        0.0776
      3 C          62.8491   86.4725   12.5063 C.3     1  UNL1        0.0899
      4 C          61.4997   86.4670   10.2862 C.2     1  UNL1        0.4014
      5 O          62.7449   86.8209    9.5285 O.2     1  UNL1       -0.2264
      6 N          61.5518   86.2928   11.7751 N.am    1  UNL1       -0.2711
      7 H          60.7346   86.0605   12.2724 H       1  UNL1        0.1527
      8 O          60.2024   86.2872    9.5550 O.3     1  UNL1       -0.4419
      9 C          59.7815   88.3662    9.5315 C.3     1  UNL1        0.0437
     10 C          59.7914   87.2744    8.5030 C.3     1  UNL1        0.1378
     11 C          59.8013   86.1825    7.4746 C.3     1  UNL1        0.0437
     12 C          59.3804   88.2616    7.4512 C.3     1  UNL1        0.0437
     13 C          63.5547   85.2822   13.0856 C.3     1  UNL1        0.0485
     14 C          63.5532   83.9767   12.3470 C.2     1  UNL1       -0.0003
     15 C          64.1381   83.7321   10.9876 C.2     1  UNL1        0.0942
     16 N          63.9129   82.2907   10.6387 N.2     1  UNL1       -0.2482
     17 C          63.1888   81.6445   11.7824 C.2     1  UNL1        0.0631
     18 C          62.7032   80.2419   11.9988 C.3     1  UNL1        0.0717
     19 C          61.9953   79.8813   13.2711 C.2     1  UNL1       -0.0198
     20 C          61.7730   80.9233   14.3270 C.2     1  UNL1       -0.0042
     21 C          62.2586   82.3259   14.1106 C.2     1  UNL1        0.0006
     22 C          62.9665   82.6865   12.8383 C.2     1  UNL1        0.0115
     23 C          63.7514   89.3595   14.7444 C.3     1  UNL1        0.0864
     24 C          64.2043   90.7486   14.4046 C.3     1  UNL1        0.1575
     25 C          64.0268   91.2756   13.0114 C.2     1  UNL1        0.2414
     26 O          62.7213   91.0845   12.2979 O.2     1  UNL1       -0.2733
     27 N          65.1548   91.9937   12.3319 N.am    1  UNL1       -0.2990
     28 H          66.0117   92.1191   12.8002 H       1  UNL1        0.1498
     29 C          64.9773   92.5206   10.9387 C.3     1  UNL1        0.1179
     30 C          65.9036   93.5768   10.4126 C.ar    1  UNL1        0.0166
     31 C          65.5018   95.0210   10.4657 C.ar    1  UNL1        0.0005
     32 C          66.4281   96.0769    9.9396 C.ar    1  UNL1        0.0204
     33 C          67.7562   95.6888    9.3605 C.ar    1  UNL1        0.0989
     34 N          68.1581   94.2446    9.3074 N.ar    1  UNL1       -0.2426
     35 C          67.2318   93.1886    9.8335 C.ar    1  UNL1        0.0962
     36 N          64.8346   91.6107   15.4579 N.pl3   1  UNL1       -0.3263
     37 H          64.3050   91.9074   16.2330 H       1  UNL1        0.1472
     38 C          66.2718   92.0208   15.3303 C.ar    1  UNL1        0.0449
     39 C          66.8140   93.1289   16.1836 C.ar    1  UNL1        0.0143
     40 C          68.2512   93.5390   16.0561 C.ar    1  UNL1        0.0013
     41 C          69.1461   92.8411   15.0753 C.ar    1  UNL1        0.0001
     42 C          68.6039   91.7330   14.2220 C.ar    1  UNL1        0.0013
     43 C          67.1667   91.3229   14.3495 C.ar    1  UNL1        0.0143
@<TRIPOS>BOND
     1     9    10    1
     2    10    11    1
     3    10    12    1
     4    10     8    1
     5     8     4    1
     6     4     5    2
     7     4     6   am
     8     6     3    1
     9     3     2    1
    10     2     1    1
    11     1    23    1
    12    23    24    1
    13    24    36    1
    14    36    38    1
    15    38    39   ar
    16    39    40   ar
    17    40    41   ar
    18    41    42   ar
    19    42    43   ar
    20    24    25    1
    21    25    26    2
    22    25    27   am
    23    27    29    1
    24    29    30    1
    25    30    31   ar
    26    31    32   ar
    27    32    33   ar
    28    33    34   ar
    29    34    35   ar
    30     3    13    1
    31    13    14    1
    32    14    15    2
    33    15    16    1
    34    16    17    2
    35    17    18    1
    36    18    19    1
    37    19    20    2
    38    20    21    1
    39    21    22    2
    40    43    38   ar
    41    35    30   ar
    42    22    14    1
    43    22    17    1
    44     6     7    1
    45    36    37    1
    46    27    28    1
