@<TRIPOS>MOLECULE
*****
 46 49 0 0 0
SMALL
GASTEIGER

@<TRIPOS>ATOM
      1 N          59.9296   88.5260    7.8749 N.am    1  UNL1       -0.2724
      2 C          60.5267   88.8297    9.2170 C.2     1  UNL1        0.2491
      3 O          59.9937   89.9688   10.0346 O.2     1  UNL1       -0.2727
      4 C          60.4626   87.3869    7.0574 C.3     1  UNL1        0.1111
      5 C          60.2061   85.9722    7.4851 C.3     1  UNL1        0.0939
      6 N          61.2345   84.9118    7.2248 N.3     1  UNL1       -0.2712
      7 C          63.4981   85.5530    8.3271 C.3     1  UNL1        0.0188
      8 C          62.3084   84.6439    8.2372 C.3     1  UNL1        0.0722
      9 C          61.1891   84.1193    5.9520 C.3     1  UNL1        0.0722
     10 C          62.2787   84.2741    4.9328 C.3     1  UNL1        0.0188
     11 C          58.7995   89.3613    7.3504 C.3     1  UNL1        0.1202
     12 C          59.0222   90.2758    6.1823 C.ar    1  UNL1       -0.0023
     13 C          57.8549   90.9503    5.5247 C.ar    1  UNL1       -0.0026
     14 C          58.0775   91.8647    4.3567 C.ar    1  UNL1       -0.0003
     15 C          59.4674   92.1045    3.8462 C.ar    1  UNL1       -0.0000
     16 C          60.6347   91.4299    4.5037 C.ar    1  UNL1       -0.0003
     17 C          60.4121   90.5156    5.6718 C.ar    1  UNL1       -0.0026
     18 C          59.6900   93.0189    2.6781 C.ar    1  UNL1       -0.0000
     19 C          60.3870   94.3323    2.8760 C.ar    1  UNL1       -0.0001
     20 C          60.6096   95.2467    1.7079 C.ar    1  UNL1        0.0039
     21 C          60.1352   94.8477    0.3420 C.ar    1  UNL1        0.0714
     22 C          59.4383   93.5342    0.1442 C.ar    1  UNL1        0.0039
     23 C          59.2157   92.6198    1.3122 C.ar    1  UNL1       -0.0001
     24 C          60.3578   95.7620   -0.8261 C.3     1  UNL1        0.4186
     25 F          60.5804   96.6763   -1.9941 F       1  UNL1       -0.1659
     26 F          58.9496   96.2635   -0.7019 F       1  UNL1       -0.1659
     27 F          61.7660   95.2606   -0.9503 F       1  UNL1       -0.1659
     28 C          61.6567   87.9943    9.7416 C.3     1  UNL1        0.1931
     29 N          62.4302   88.4488   10.9437 N.ar    1  UNL1       -0.3030
     30 C          62.7529   87.4765   12.0395 C.ar    1  UNL1        0.1747
     31 N          63.5263   87.9310   13.2417 N.ar    1  UNL1       -0.1847
     32 C          63.9771   89.3578   13.3481 C.ar    1  UNL1        0.2779
     33 O          64.7506   89.8122   14.5502 O.2     1  UNL1       -0.2654
     34 C          63.6544   90.3299   12.2523 C.ar    1  UNL1        0.0477
     35 C          64.1052   91.7566   12.3588 C.3     1  UNL1        0.0373
     36 C          62.8810   89.8755   11.0502 C.ar    1  UNL1        0.0403
     37 C          62.5583   90.8477    9.9544 C.3     1  UNL1        0.0499
     38 S          62.3021   86.0499   11.9331 S.3     1  UNL1       -0.0724
     39 C          62.6930   85.0590   12.9892 C.3     1  UNL1        0.0913
     40 C          62.6969   83.5919   12.6766 C.ar    1  UNL1       -0.0108
     41 C          63.1678   83.1121   11.3356 C.ar    1  UNL1       -0.0011
     42 C          63.1716   81.6450   11.0229 C.ar    1  UNL1        0.0293
     43 C          62.7046   80.6578   12.0512 C.ar    1  UNL1        0.1401
     44 F          62.7085   79.1908   11.7386 F       1  UNL1       -0.2042
     45 C          62.2338   81.1377   13.3921 C.ar    1  UNL1        0.0293
     46 C          62.2299   82.6047   13.7048 C.ar    1  UNL1       -0.0011
@<TRIPOS>BOND
     1     7     8    1
     2     8     6    1
     3     6     9    1
     4     9    10    1
     5     6     5    1
     6     5     4    1
     7     4     1    1
     8     1    11    1
     9    11    12    1
    10    12    13   ar
    11    13    14   ar
    12    14    15   ar
    13    15    18    1
    14    18    19   ar
    15    19    20   ar
    16    20    21   ar
    17    21    24    1
    18    24    25    1
    19    24    26    1
    20    24    27    1
    21    21    22   ar
    22    22    23   ar
    23    15    16   ar
    24    16    17   ar
    25     1     2   am
    26     2     3    2
    27     2    28    1
    28    28    29    1
    29    29    30   ar
    30    30    38    1
    31    38    39    1
    32    39    40    1
    33    40    41   ar
    34    41    42   ar
    35    42    43   ar
    36    43    44    1
    37    43    45   ar
    38    45    46   ar
    39    30    31   ar
    40    31    32   ar
    41    32    33    2
    42    32    34   ar
    43    34    35    1
    44    34    36   ar
    45    36    37    1
    46    17    12   ar
    47    36    29   ar
    48    23    18   ar
    49    46    40   ar
@<TRIPOS>MOLECULE
*****
 46 49 0 0 0
SMALL
GASTEIGER

@<TRIPOS>ATOM
      1 N          61.8720   87.3934   11.7653 N.am    1  UNL1       -0.2724
      2 C          62.2872   88.5883   12.5715 C.2     1  UNL1        0.2491
      3 O          61.3910   89.7885   12.6497 O.2     1  UNL1       -0.2727
      4 C          62.7684   86.1932   11.6872 C.3     1  UNL1        0.1111
      5 C          62.3436   84.9900   10.8986 C.3     1  UNL1        0.0939
      6 N          63.2571   84.4152    9.8570 N.3     1  UNL1       -0.2712
      7 C          62.0060   85.4350    7.8211 C.3     1  UNL1        0.0188
      8 C          63.2837   85.0017    8.4766 C.3     1  UNL1        0.0722
      9 C          64.1441   83.2540   10.1957 C.3     1  UNL1        0.0722
     10 C          63.5403   81.9276   10.5511 C.3     1  UNL1        0.0188
     11 C          60.5606   87.3988   11.0373 C.3     1  UNL1        0.1202
     12 C          60.4048   88.1996    9.7785 C.ar    1  UNL1       -0.0023
     13 C          59.5161   87.7012    8.6777 C.ar    1  UNL1       -0.0026
     14 C          59.3603   88.5020    7.4190 C.ar    1  UNL1       -0.0003
     15 C          60.0933   89.8012    7.2611 C.ar    1  UNL1       -0.0000
     16 C          60.9820   90.2996    8.3619 C.ar    1  UNL1       -0.0003
     17 C          61.1377   89.4988    9.6206 C.ar    1  UNL1       -0.0026
     18 C          59.9375   90.6020    6.0023 C.ar    1  UNL1       -0.0000
     19 C          61.1413   90.9361    5.1721 C.ar    1  UNL1       -0.0001
     20 C          60.9855   91.7370    3.9133 C.ar    1  UNL1        0.0039
     21 C          59.6259   92.2036    3.4848 C.ar    1  UNL1        0.0714
     22 C          58.4220   91.8695    4.3150 C.ar    1  UNL1        0.0039
     23 C          58.5779   91.0687    5.5737 C.ar    1  UNL1       -0.0001
     24 C          59.4700   93.0044    2.2260 C.3     1  UNL1        0.4186
     25 F          59.3142   93.8052    0.9673 F       1  UNL1       -0.1659
     26 F          60.7353   93.7458    2.5411 F       1  UNL1       -0.1659
     27 F          58.2047   92.2629    1.9110 F       1  UNL1       -0.1659
     28 C          63.5987   88.5829   13.2996 C.3     1  UNL1        0.1931
     29 N          63.8885   89.6331   14.3306 N.ar    1  UNL1       -0.3030
     30 C          63.3595   89.4805   15.7259 C.ar    1  UNL1        0.1747
     31 N          63.6493   90.5307   16.7570 N.ar    1  UNL1       -0.1847
     32 C          64.4681   91.7336   16.3926 C.ar    1  UNL1        0.2779
     33 O          64.7579   92.7838   17.4236 O.2     1  UNL1       -0.2654
     34 C          64.9971   91.8862   14.9973 C.ar    1  UNL1        0.0477
     35 C          65.8159   93.0890   14.6331 C.3     1  UNL1        0.0373
     36 C          64.7073   90.8360   13.9663 C.ar    1  UNL1        0.0403
     37 C          65.2363   90.9886   12.5711 C.3     1  UNL1        0.0499
     38 S          62.5407   88.2776   16.0902 S.3     1  UNL1       -0.0724
     39 C          63.1914   87.1005   16.7544 C.3     1  UNL1        0.0913
     40 C          63.4507   85.8469   15.9726 C.ar    1  UNL1       -0.0108
     41 C          64.6718   85.7414   15.1077 C.ar    1  UNL1       -0.0011
     42 C          64.9310   84.4878   14.3259 C.ar    1  UNL1        0.0293
     43 C          63.9692   83.3397   14.4089 C.ar    1  UNL1        0.1401
     44 F          64.2284   82.0861   13.6271 F       1  UNL1       -0.2042
     45 C          62.7481   83.4453   15.2737 C.ar    1  UNL1        0.0293
     46 C          62.4889   84.6989   16.0555 C.ar    1  UNL1       -0.0011
@<TRIPOS>BOND
     1     7     8    1
     2     8     6    1
     3     6     9    1
     4     9    10    1
     5     6     5    1
     6     5     4    1
     7     4     1    1
     8     1    11    1
     9    11    12    1
    10    12    13   ar
    11    13    14   ar
    12    14    15   ar
    13    15    18    1
    14    18    19   ar
    15    19    20   ar
    16    20    21   ar
    17    21    24    1
    18    24    25    1
    19    24    26    1
    20    24    27    1
    21    21    22   ar
    22    22    23   ar
    23    15    16   ar
    24    16    17   ar
    25     1     2   am
    26     2     3    2
    27     2    28    1
    28    28    29    1
    29    29    30   ar
    30    30    38    1
    31    38    39    1
    32    39    40    1
    33    40    41   ar
    34    41    42   ar
    35    42    43   ar
    36    43    44    1
    37    43    45   ar
    38    45    46   ar
    39    30    31   ar
    40    31    32   ar
    41    32    33    2
    42    32    34   ar
    43    34    35    1
    44    34    36   ar
    45    36    37    1
    46    17    12   ar
    47    36    29   ar
    48    23    18   ar
    49    46    40   ar
@<TRIPOS>MOLECULE
*****
 46 49 0 0 0
SMALL
GASTEIGER

@<TRIPOS>ATOM
      1 N          59.7333   93.0022    1.2586 N.am    1  UNL1       -0.2724
      2 C          59.0795   92.8989   -0.0874 C.2     1  UNL1        0.2491
      3 O          57.5835   92.8948   -0.1962 O.2     1  UNL1       -0.2727
      4 C          61.2294   93.0062    1.3674 C.3     1  UNL1        0.1111
      5 C          61.9422   94.2303    1.8609 C.3     1  UNL1        0.0939
      6 N          63.4178   94.3803    1.6370 N.3     1  UNL1       -0.2712
      7 C          65.0070   96.1664    2.6540 C.3     1  UNL1        0.0188
      8 C          64.0344   95.7471    1.5919 C.3     1  UNL1        0.0722
      9 C          64.2768   93.1637    1.4580 C.3     1  UNL1        0.0722
     10 C          65.4052   93.1811    0.4699 C.3     1  UNL1        0.0188
     11 C          58.8911   93.1015    2.4959 C.3     1  UNL1        0.1202
     12 C          59.1508   92.1859    3.6554 C.ar    1  UNL1       -0.0023
     13 C          60.5542   91.7696    3.9827 C.ar    1  UNL1       -0.0026
     14 C          60.8138   90.8542    5.1422 C.ar    1  UNL1       -0.0003
     15 C          59.6700   90.3550    5.9744 C.ar    1  UNL1       -0.0000
     16 C          58.2666   90.7713    5.6471 C.ar    1  UNL1       -0.0003
     17 C          58.0070   91.6868    4.4877 C.ar    1  UNL1       -0.0026
     18 C          59.9297   89.4395    7.1339 C.ar    1  UNL1       -0.0000
     19 C          59.5300   87.9960    7.0540 C.ar    1  UNL1       -0.0001
     20 C          59.7897   87.0804    8.2135 C.ar    1  UNL1        0.0039
     21 C          60.4491   87.6085    9.4530 C.ar    1  UNL1        0.0714
     22 C          60.8488   89.0521    9.5329 C.ar    1  UNL1        0.0039
     23 C          60.5891   89.9675    8.3734 C.ar    1  UNL1       -0.0001
     24 C          60.7088   86.6931   10.6125 C.3     1  UNL1        0.4186
     25 F          60.9684   85.7777   11.7720 F       1  UNL1       -0.1659
     26 F          61.2073   85.6392    9.6688 F       1  UNL1       -0.1659
     27 F          60.2103   87.7470   11.5562 F       1  UNL1       -0.1659
     28 C          59.9218   92.7996   -1.3247 C.3     1  UNL1        0.1931
     29 N          59.6705   93.7236   -2.4792 N.ar    1  UNL1       -0.3030
     30 C          60.4572   94.9943   -2.6079 C.ar    1  UNL1        0.1747
     31 N          60.2059   95.9184   -3.7624 N.ar    1  UNL1       -0.1847
     32 C          59.1677   95.5718   -4.7883 C.ar    1  UNL1        0.2779
     33 O          58.9164   96.4958   -5.9428 O.2     1  UNL1       -0.2654
     34 C          58.3811   94.3011   -4.6595 C.ar    1  UNL1        0.0477
     35 C          57.3430   93.9546   -5.6853 C.3     1  UNL1        0.0373
     36 C          58.6324   93.3771   -3.5050 C.ar    1  UNL1        0.0403
     37 C          57.8457   92.1065   -3.3763 C.3     1  UNL1        0.0499
     38 S          61.4953   95.3409   -1.5821 S.3     1  UNL1       -0.0724
     39 C          62.9095   95.6062   -2.0061 C.3     1  UNL1        0.0913
     40 C          63.5810   94.6947   -2.9901 C.ar    1  UNL1       -0.0108
     41 C          63.5122   93.2079   -2.8031 C.ar    1  UNL1       -0.0011
     42 C          64.1837   92.2964   -3.7871 C.ar    1  UNL1        0.0293
     43 C          64.9239   92.8716   -4.9581 C.ar    1  UNL1        0.1401
     44 F          65.5954   91.9601   -5.9421 F       1  UNL1       -0.2042
     45 C          64.9927   94.3583   -5.1451 C.ar    1  UNL1        0.0293
     46 C          64.3212   95.2698   -4.1611 C.ar    1  UNL1       -0.0011
@<TRIPOS>BOND
     1     7     8    1
     2     8     6    1
     3     6     9    1
     4     9    10    1
     5     6     5    1
     6     5     4    1
     7     4     1    1
     8     1    11    1
     9    11    12    1
    10    12    13   ar
    11    13    14   ar
    12    14    15   ar
    13    15    18    1
    14    18    19   ar
    15    19    20   ar
    16    20    21   ar
    17    21    24    1
    18    24    25    1
    19    24    26    1
    20    24    27    1
    21    21    22   ar
    22    22    23   ar
    23    15    16   ar
    24    16    17   ar
    25     1     2   am
    26     2     3    2
    27     2    28    1
    28    28    29    1
    29    29    30   ar
    30    30    38    1
    31    38    39    1
    32    39    40    1
    33    40    41   ar
    34    41    42   ar
    35    42    43   ar
    36    43    44    1
    37    43    45   ar
    38    45    46   ar
    39    30    31   ar
    40    31    32   ar
    41    32    33    2
    42    32    34   ar
    43    34    35    1
    44    34    36   ar
    45    36    37    1
    46    17    12   ar
    47    36    29   ar
    48    23    18   ar
    49    46    40   ar
@<TRIPOS>MOLECULE
*****
 46 49 0 0 0
SMALL
GASTEIGER

@<TRIPOS>ATOM
      1 N          61.2735   86.3773   10.7091 N.am    1  UNL1       -0.2724
      2 C          62.0669   85.2796   10.0645 C.2     1  UNL1        0.2491
      3 O          61.5520   84.6107    8.8246 O.2     1  UNL1       -0.2727
      4 C          61.7884   87.0462   11.9491 C.3     1  UNL1        0.1111
      5 C          62.5973   88.3048   11.8415 C.3     1  UNL1        0.0939
      6 N          61.9344   89.6394   12.0129 N.3     1  UNL1       -0.2712
      7 C          59.5354   90.5599   11.6289 C.3     1  UNL1        0.0188
      8 C          60.4915   89.7138   12.4162 C.3     1  UNL1        0.0722
      9 C          62.7143   90.8995   11.7811 C.3     1  UNL1        0.0722
     10 C          63.2238   91.2244   10.4081 C.3     1  UNL1        0.0188
     11 C          59.9652   86.8062   10.1137 C.3     1  UNL1        0.1202
     12 C          59.9444   87.7677    8.9624 C.ar    1  UNL1       -0.0023
     13 C          60.7120   89.0536    9.0453 C.ar    1  UNL1       -0.0026
     14 C          60.6912   90.0150    7.8941 C.ar    1  UNL1       -0.0003
     15 C          59.9027   89.6904    6.6600 C.ar    1  UNL1       -0.0000
     16 C          59.1350   88.4044    6.5772 C.ar    1  UNL1       -0.0003
     17 C          59.1559   87.4430    7.7284 C.ar    1  UNL1       -0.0026
     18 C          59.8818   90.6518    5.5088 C.ar    1  UNL1       -0.0000
     19 C          58.5871   91.2698    5.0711 C.ar    1  UNL1       -0.0001
     20 C          58.5662   92.2312    3.9198 C.ar    1  UNL1        0.0039
     21 C          59.8402   92.5746    3.2064 C.ar    1  UNL1        0.0714
     22 C          61.1350   91.9566    3.6441 C.ar    1  UNL1        0.0039
     23 C          61.1558   90.9952    4.7953 C.ar    1  UNL1       -0.0001
     24 C          59.8194   93.5360    2.0552 C.3     1  UNL1        0.4186
     25 F          59.7986   94.4974    0.9040 F       1  UNL1       -0.1659
     26 F          60.1552   94.6610    2.9887 F       1  UNL1       -0.1659
     27 F          59.4836   92.4110    1.1217 F       1  UNL1       -0.1659
     28 C          63.3752   84.8507   10.6600 C.3     1  UNL1        0.1931
     29 N          63.4109   83.7493   11.6777 N.ar    1  UNL1       -0.3030
     30 C          63.7412   84.0598   13.1076 C.ar    1  UNL1        0.1747
     31 N          63.7769   82.9585   14.1252 N.ar    1  UNL1       -0.1847
     32 C          63.4822   81.5466   13.7130 C.ar    1  UNL1        0.2779
     33 O          63.5179   80.4452   14.7307 O.2     1  UNL1       -0.2654
     34 C          63.1519   81.2362   12.2832 C.ar    1  UNL1        0.0477
     35 C          62.8572   79.8243   11.8710 C.3     1  UNL1        0.0373
     36 C          63.1162   82.3375   11.2655 C.ar    1  UNL1        0.0403
     37 C          62.7859   82.0271    9.8357 C.3     1  UNL1        0.0499
     38 S          64.0359   85.4717   13.5197 S.3     1  UNL1       -0.0724
     39 C          64.0286   85.8460   14.9723 C.3     1  UNL1        0.0913
     40 C          63.9029   87.2854   15.3752 C.ar    1  UNL1       -0.0108
     41 C          64.4727   88.3618   14.4996 C.ar    1  UNL1       -0.0011
     42 C          64.3470   89.8012   14.9026 C.ar    1  UNL1        0.0293
     43 C          63.6513   90.1641   16.1810 C.ar    1  UNL1        0.1401
     44 F          63.5255   91.6035   16.5840 F       1  UNL1       -0.2042
     45 C          63.0815   89.0877   17.0565 C.ar    1  UNL1        0.0293
     46 C          63.2072   87.6483   16.6536 C.ar    1  UNL1       -0.0011
@<TRIPOS>BOND
     1     7     8    1
     2     8     6    1
     3     6     9    1
     4     9    10    1
     5     6     5    1
     6     5     4    1
     7     4     1    1
     8     1    11    1
     9    11    12    1
    10    12    13   ar
    11    13    14   ar
    12    14    15   ar
    13    15    18    1
    14    18    19   ar
    15    19    20   ar
    16    20    21   ar
    17    21    24    1
    18    24    25    1
    19    24    26    1
    20    24    27    1
    21    21    22   ar
    22    22    23   ar
    23    15    16   ar
    24    16    17   ar
    25     1     2   am
    26     2     3    2
    27     2    28    1
    28    28    29    1
    29    29    30   ar
    30    30    38    1
    31    38    39    1
    32    39    40    1
    33    40    41   ar
    34    41    42   ar
    35    42    43   ar
    36    43    44    1
    37    43    45   ar
    38    45    46   ar
    39    30    31   ar
    40    31    32   ar
    41    32    33    2
    42    32    34   ar
    43    34    35    1
    44    34    36   ar
    45    36    37    1
    46    17    12   ar
    47    36    29   ar
    48    23    18   ar
    49    46    40   ar
@<TRIPOS>MOLECULE
*****
 46 49 0 0 0
SMALL
GASTEIGER

@<TRIPOS>ATOM
      1 N          60.6209   87.8899   10.7743 N.am    1  UNL1       -0.2724
      2 C          60.8785   88.9793   11.7727 C.2     1  UNL1        0.2491
      3 O          60.0175   90.2075   11.7815 O.2     1  UNL1       -0.2727
      4 C          61.4820   86.6616   10.7655 C.3     1  UNL1        0.1111
      5 C          62.4975   86.4654    9.6793 C.3     1  UNL1        0.0939
      6 N          62.9193   85.0800    9.2883 N.3     1  UNL1       -0.2712
      7 C          61.9278   84.8361    6.8993 C.3     1  UNL1        0.0188
      8 C          63.0912   84.7289    7.8401 C.3     1  UNL1        0.0722
      9 C          63.1694   84.0457   10.3455 C.3     1  UNL1        0.0722
     10 C          64.2821   83.0541   10.1763 C.3     1  UNL1        0.0188
     11 C          59.5023   88.0286    9.7847 C.3     1  UNL1        0.1202
     12 C          59.7044   88.8278    8.5314 C.ar    1  UNL1       -0.0023
     13 C          58.8972   88.5177    7.3058 C.ar    1  UNL1       -0.0026
     14 C          59.0993   89.3168    6.0526 C.ar    1  UNL1       -0.0003
     15 C          60.1087   90.4261    6.0251 C.ar    1  UNL1       -0.0000
     16 C          60.9159   90.7362    7.2507 C.ar    1  UNL1       -0.0003
     17 C          60.7137   89.9371    8.5039 C.ar    1  UNL1       -0.0026
     18 C          60.3108   91.2253    4.7719 C.ar    1  UNL1       -0.0000
     19 C          61.6583   91.2604    4.1139 C.ar    1  UNL1       -0.0001
     20 C          61.8604   92.0595    2.8606 C.ar    1  UNL1        0.0039
     21 C          60.7150   92.8236    2.2654 C.ar    1  UNL1        0.0714
     22 C          59.3675   92.7884    2.9235 C.ar    1  UNL1        0.0039
     23 C          59.1654   91.9893    4.1766 C.ar    1  UNL1       -0.0001
     24 C          60.9171   93.6227    1.0122 C.3     1  UNL1        0.4186
     25 F          61.1191   94.4218   -0.2409 F       1  UNL1       -0.1659
     26 F          62.1471   92.8228    0.7005 F       1  UNL1       -0.1659
     27 F          59.6871   94.4226    1.3240 F       1  UNL1       -0.1659
     28 C          61.9972   88.8405   12.7623 C.3     1  UNL1        0.1931
     29 N          62.9770   89.9608   12.9487 N.ar    1  UNL1       -0.3030
     30 C          63.3589   90.4010   14.3309 C.ar    1  UNL1        0.1747
     31 N          64.3388   91.5214   14.5172 N.ar    1  UNL1       -0.1847
     32 C          64.9366   92.2016   13.3214 C.ar    1  UNL1        0.2779
     33 O          65.9165   93.3219   13.5077 O.2     1  UNL1       -0.2654
     34 C          64.5547   91.7613   11.9393 C.ar    1  UNL1        0.0477
     35 C          65.1526   92.4415   10.7435 C.3     1  UNL1        0.0373
     36 C          63.5749   90.6410   11.7529 C.ar    1  UNL1        0.0403
     37 C          63.1929   90.2008   10.3708 C.3     1  UNL1        0.0499
     38 S          62.7611   89.7209   15.5266 S.3     1  UNL1       -0.0724
     39 C          63.5912   88.7778   16.3461 C.3     1  UNL1        0.0913
     40 C          63.6198   87.3166   16.0084 C.ar    1  UNL1       -0.0108
     41 C          62.8321   86.3410   16.8317 C.ar    1  UNL1       -0.0011
     42 C          62.8607   84.8798   16.4940 C.ar    1  UNL1        0.0293
     43 C          63.6770   84.3942   15.3330 C.ar    1  UNL1        0.1401
     44 F          63.7056   82.9330   14.9953 F       1  UNL1       -0.2042
     45 C          64.4646   85.3698   14.5097 C.ar    1  UNL1        0.0293
     46 C          64.4361   86.8310   14.8475 C.ar    1  UNL1       -0.0011
@<TRIPOS>BOND
     1     7     8    1
     2     8     6    1
     3     6     9    1
     4     9    10    1
     5     6     5    1
     6     5     4    1
     7     4     1    1
     8     1    11    1
     9    11    12    1
    10    12    13   ar
    11    13    14   ar
    12    14    15   ar
    13    15    18    1
    14    18    19   ar
    15    19    20   ar
    16    20    21   ar
    17    21    24    1
    18    24    25    1
    19    24    26    1
    20    24    27    1
    21    21    22   ar
    22    22    23   ar
    23    15    16   ar
    24    16    17   ar
    25     1     2   am
    26     2     3    2
    27     2    28    1
    28    28    29    1
    29    29    30   ar
    30    30    38    1
    31    38    39    1
    32    39    40    1
    33    40    41   ar
    34    41    42   ar
    35    42    43   ar
    36    43    44    1
    37    43    45   ar
    38    45    46   ar
    39    30    31   ar
    40    31    32   ar
    41    32    33    2
    42    32    34   ar
    43    34    35    1
    44    34    36   ar
    45    36    37    1
    46    17    12   ar
    47    36    29   ar
    48    23    18   ar
    49    46    40   ar
@<TRIPOS>MOLECULE
*****
 46 49 0 0 0
SMALL
GASTEIGER

@<TRIPOS>ATOM
      1 N          60.1833   89.2623    9.3948 N.am    1  UNL1       -0.2724
      2 C          59.8962   88.1207   10.3245 C.2     1  UNL1        0.2491
      3 O          59.8690   88.3492   11.8067 O.2     1  UNL1       -0.2727
      4 C          60.2105   89.0338    7.9125 C.3     1  UNL1        0.1111
      5 C          59.0838   89.5310    7.0562 C.3     1  UNL1        0.0939
      6 N          59.3627   90.4726    5.9224 N.3     1  UNL1       -0.2712
      7 C          61.0841   91.5740    4.3181 C.3     1  UNL1        0.0188
      8 C          60.7051   90.4641    5.2532 C.3     1  UNL1        0.0722
      9 C          58.2990   91.4227    5.4576 C.3     1  UNL1        0.0722
     10 C          56.9170   90.9173    5.1665 C.3     1  UNL1        0.0188
     11 C          60.4432   90.6324    9.9474 C.3     1  UNL1        0.1202
     12 C          61.6604   90.8840   10.7872 C.ar    1  UNL1       -0.0023
     13 C          61.6283   90.5970   12.2591 C.ar    1  UNL1       -0.0026
     14 C          62.8454   90.8485   13.0989 C.ar    1  UNL1       -0.0003
     15 C          64.0946   91.3871   12.4668 C.ar    1  UNL1       -0.0000
     16 C          64.1266   91.6741   10.9949 C.ar    1  UNL1       -0.0003
     17 C          62.9095   91.4226   10.1551 C.ar    1  UNL1       -0.0026
     18 C          65.3117   91.6387   13.3067 C.ar    1  UNL1       -0.0000
     19 C          65.2181   91.5709   14.8022 C.ar    1  UNL1       -0.0001
     20 C          66.4352   91.8225   15.6421 C.ar    1  UNL1        0.0039
     21 C          67.7460   92.1418   14.9864 C.ar    1  UNL1        0.0714
     22 C          67.8396   92.2095   13.4908 C.ar    1  UNL1        0.0039
     23 C          66.6225   91.9579   12.6510 C.ar    1  UNL1       -0.0001
     24 C          68.9631   92.3933   15.8262 C.3     1  UNL1        0.4186
     25 F          70.1802   92.6449   16.6660 F       1  UNL1       -0.1659
     26 F          69.7549   92.6946   14.5884 F       1  UNL1       -0.1659
     27 F          68.1713   92.0921   17.0640 F       1  UNL1       -0.1659
     28 C          59.6364   86.7506    9.7719 C.3     1  UNL1        0.1931
     29 N          60.7148   86.0281    9.0202 N.ar    1  UNL1       -0.3030
     30 C          61.9957   85.6643    9.7109 C.ar    1  UNL1        0.1747
     31 N          63.0741   84.9418    8.9592 N.ar    1  UNL1       -0.1847
     32 C          62.8717   84.5832    7.5168 C.ar    1  UNL1        0.2779
     33 O          63.9501   83.8607    6.7651 O.2     1  UNL1       -0.2654
     34 C          61.5908   84.9471    6.8262 C.ar    1  UNL1        0.0477
     35 C          61.3885   84.5885    5.3838 C.3     1  UNL1        0.0373
     36 C          60.5124   85.6695    7.5778 C.ar    1  UNL1        0.0403
     37 C          59.2316   86.0334    6.8872 C.3     1  UNL1        0.0499
     38 S          62.1981   86.0229   11.1533 S.3     1  UNL1       -0.0724
     39 C          63.2066   85.2781   11.9769 C.3     1  UNL1        0.0913
     40 C          62.9302   83.8675   12.4056 C.ar    1  UNL1       -0.0108
     41 C          62.4513   83.5873   13.7992 C.ar    1  UNL1       -0.0011
     42 C          62.1750   82.1767   14.2279 C.ar    1  UNL1        0.0293
     43 C          62.3776   81.0462   13.2629 C.ar    1  UNL1        0.1401
     44 F          62.1013   79.6356   13.6916 F       1  UNL1       -0.2042
     45 C          62.8565   81.3265   11.8694 C.ar    1  UNL1        0.0293
     46 C          63.1328   82.7371   11.4407 C.ar    1  UNL1       -0.0011
@<TRIPOS>BOND
     1     7     8    1
     2     8     6    1
     3     6     9    1
     4     9    10    1
     5     6     5    1
     6     5     4    1
     7     4     1    1
     8     1    11    1
     9    11    12    1
    10    12    13   ar
    11    13    14   ar
    12    14    15   ar
    13    15    18    1
    14    18    19   ar
    15    19    20   ar
    16    20    21   ar
    17    21    24    1
    18    24    25    1
    19    24    26    1
    20    24    27    1
    21    21    22   ar
    22    22    23   ar
    23    15    16   ar
    24    16    17   ar
    25     1     2   am
    26     2     3    2
    27     2    28    1
    28    28    29    1
    29    29    30   ar
    30    30    38    1
    31    38    39    1
    32    39    40    1
    33    40    41   ar
    34    41    42   ar
    35    42    43   ar
    36    43    44    1
    37    43    45   ar
    38    45    46   ar
    39    30    31   ar
    40    31    32   ar
    41    32    33    2
    42    32    34   ar
    43    34    35    1
    44    34    36   ar
    45    36    37    1
    46    17    12   ar
    47    36    29   ar
    48    23    18   ar
    49    46    40   ar
@<TRIPOS>MOLECULE
*****
 46 49 0 0 0
SMALL
GASTEIGER

@<TRIPOS>ATOM
      1 N          60.2074   89.1548    9.3350 N.am    1  UNL1       -0.2724
      2 C          60.0046   88.0180   10.2923 C.2     1  UNL1        0.2491
      3 O          60.0589   88.2640   11.7710 O.2     1  UNL1       -0.2727
      4 C          60.1531   88.9088    7.8562 C.3     1  UNL1        0.1111
      5 C          59.0384   89.4917    7.0393 C.3     1  UNL1        0.0939
      6 N          59.3456   90.4488    5.9260 N.3     1  UNL1       -0.2712
      7 C          61.0866   91.5498    4.3427 C.3     1  UNL1        0.0188
      8 C          60.7090   90.4589    5.3004 C.3     1  UNL1        0.0722
      9 C          58.2896   91.3957    5.4381 C.3     1  UNL1        0.0722
     10 C          56.8998   90.8973    5.1729 C.3     1  UNL1        0.0188
     11 C          60.4643   90.5376    9.8562 C.3     1  UNL1        0.1202
     12 C          61.6698   90.8062   10.7077 C.ar    1  UNL1       -0.0023
     13 C          62.9161   91.3653   10.0881 C.ar    1  UNL1       -0.0026
     14 C          64.1215   91.6339   10.9395 C.ar    1  UNL1       -0.0003
     15 C          64.0804   91.3434   12.4105 C.ar    1  UNL1       -0.0000
     16 C          62.8341   90.7843   13.0301 C.ar    1  UNL1       -0.0003
     17 C          61.6287   90.5158   12.1787 C.ar    1  UNL1       -0.0026
     18 C          65.2859   91.6120   13.2620 C.ar    1  UNL1       -0.0000
     19 C          65.2066   91.4396   14.7499 C.ar    1  UNL1       -0.0001
     20 C          66.4120   91.7082   15.6014 C.ar    1  UNL1        0.0039
     21 C          67.6967   92.1492   14.9648 C.ar    1  UNL1        0.0714
     22 C          67.7759   92.3216   13.4768 C.ar    1  UNL1        0.0039
     23 C          66.5705   92.0530   12.6254 C.ar    1  UNL1       -0.0001
     24 C          68.9020   92.4178   15.8161 C.3     1  UNL1        0.4186
     25 F          70.1074   92.6864   16.6675 F       1  UNL1       -0.1659
     26 F          68.1050   92.0974   17.0457 F       1  UNL1       -0.1659
     27 F          69.6991   92.7383   14.5865 F       1  UNL1       -0.1659
     28 C          59.7477   86.6352    9.7710 C.3     1  UNL1        0.1931
     29 N          60.7709   85.9563    8.9095 N.ar    1  UNL1       -0.3030
     30 C          62.1126   85.6000    9.4779 C.ar    1  UNL1        0.1747
     31 N          63.1358   84.9211    8.6164 N.ar    1  UNL1       -0.1847
     32 C          62.8173   84.5985    7.1865 C.ar    1  UNL1        0.2779
     33 O          63.8405   83.9197    6.3250 O.2     1  UNL1       -0.2654
     34 C          61.4757   84.9548    6.6181 C.ar    1  UNL1        0.0477
     35 C          61.1573   84.6322    5.1883 C.3     1  UNL1        0.0373
     36 C          60.4525   85.6337    7.4796 C.ar    1  UNL1        0.0403
     37 C          59.1109   85.9900    6.9113 C.3     1  UNL1        0.0499
     38 S          62.4310   85.9226   10.9078 S.3     1  UNL1       -0.0724
     39 C          62.9622   84.8545   11.8172 C.3     1  UNL1        0.0913
     40 C          63.1337   85.1330   13.2811 C.ar    1  UNL1       -0.0108
     41 C          62.4458   84.2674   14.2949 C.ar    1  UNL1       -0.0011
     42 C          62.6172   84.5459   15.7588 C.ar    1  UNL1        0.0293
     43 C          63.4766   85.6901   16.2090 C.ar    1  UNL1        0.1401
     44 F          63.6480   85.9686   17.6729 F       1  UNL1       -0.2042
     45 C          64.1644   86.5556   15.1952 C.ar    1  UNL1        0.0293
     46 C          63.9930   86.2771   13.7313 C.ar    1  UNL1       -0.0011
@<TRIPOS>BOND
     1     7     8    1
     2     8     6    1
     3     6     9    1
     4     9    10    1
     5     6     5    1
     6     5     4    1
     7     4     1    1
     8     1    11    1
     9    11    12    1
    10    12    13   ar
    11    13    14   ar
    12    14    15   ar
    13    15    18    1
    14    18    19   ar
    15    19    20   ar
    16    20    21   ar
    17    21    24    1
    18    24    25    1
    19    24    26    1
    20    24    27    1
    21    21    22   ar
    22    22    23   ar
    23    15    16   ar
    24    16    17   ar
    25     1     2   am
    26     2     3    2
    27     2    28    1
    28    28    29    1
    29    29    30   ar
    30    30    38    1
    31    38    39    1
    32    39    40    1
    33    40    41   ar
    34    41    42   ar
    35    42    43   ar
    36    43    44    1
    37    43    45   ar
    38    45    46   ar
    39    30    31   ar
    40    31    32   ar
    41    32    33    2
    42    32    34   ar
    43    34    35    1
    44    34    36   ar
    45    36    37    1
    46    17    12   ar
    47    36    29   ar
    48    23    18   ar
    49    46    40   ar
@<TRIPOS>MOLECULE
*****
 46 49 0 0 0
SMALL
GASTEIGER

@<TRIPOS>ATOM
      1 N          60.3981   93.1054    1.0921 N.am    1  UNL1       -0.2724
      2 C          59.9609   92.4855   -0.2019 C.2     1  UNL1        0.2491
      3 O          58.5593   91.9728   -0.3522 O.2     1  UNL1       -0.2727
      4 C          61.7998   93.6181    1.2423 C.3     1  UNL1        0.1111
      5 C          62.0384   95.0241    1.7072 C.3     1  UNL1        0.0939
      6 N          62.8677   95.9581    0.8766 N.3     1  UNL1       -0.2712
      7 C          60.7528   96.6776   -0.4500 C.3     1  UNL1        0.0188
      8 C          62.2080   96.8524   -0.1310 C.3     1  UNL1        0.0722
      9 C          64.3567   95.9978    1.0535 C.3     1  UNL1        0.0722
     10 C          64.9641   95.6450    2.3789 C.3     1  UNL1        0.0188
     11 C          59.4337   93.2127    2.2359 C.3     1  UNL1        0.1202
     12 C          59.5859   92.3198    3.4316 C.ar    1  UNL1       -0.0023
     13 C          58.3780   91.9127    4.2223 C.ar    1  UNL1       -0.0026
     14 C          58.5303   91.0199    5.4179 C.ar    1  UNL1       -0.0003
     15 C          59.8905   90.5340    5.8228 C.ar    1  UNL1       -0.0000
     16 C          61.0984   90.9410    5.0321 C.ar    1  UNL1       -0.0003
     17 C          60.9461   91.8339    3.8365 C.ar    1  UNL1       -0.0026
     18 C          60.0427   89.6411    7.0185 C.ar    1  UNL1       -0.0000
     19 C          60.8056   90.1182    8.2186 C.ar    1  UNL1       -0.0001
     20 C          60.9579   89.2253    9.4143 C.ar    1  UNL1        0.0039
     21 C          60.3471   87.8553    9.4098 C.ar    1  UNL1        0.0714
     22 C          59.5842   87.3782    8.2096 C.ar    1  UNL1        0.0039
     23 C          59.4320   88.2711    7.0140 C.ar    1  UNL1       -0.0001
     24 C          60.4993   86.9623   10.6054 C.3     1  UNL1        0.4186
     25 F          60.6516   86.0694   11.8010 F       1  UNL1       -0.1659
     26 F          60.0243   88.0726   11.4951 F       1  UNL1       -0.1659
     27 F          60.9744   85.8521    9.7157 F       1  UNL1       -0.1659
     28 C          60.9254   92.3782   -1.3458 C.3     1  UNL1        0.1931
     29 N          61.0165   93.4832   -2.3561 N.ar    1  UNL1       -0.3030
     30 C          59.8141   93.8534   -3.1731 C.ar    1  UNL1        0.1747
     31 N          59.9052   94.9584   -4.1834 N.ar    1  UNL1       -0.1847
     32 C          61.1986   95.6931   -4.3768 C.ar    1  UNL1        0.2779
     33 O          61.2897   96.7980   -5.3871 O.2     1  UNL1       -0.2654
     34 C          62.4009   95.3228   -3.5599 C.ar    1  UNL1        0.0477
     35 C          63.6942   96.0576   -3.7533 C.3     1  UNL1        0.0373
     36 C          62.3098   94.2179   -2.5495 C.ar    1  UNL1        0.0403
     37 C          63.5121   93.8476   -1.7326 C.3     1  UNL1        0.0499
     38 S          58.5208   93.1187   -2.9797 S.3     1  UNL1       -0.0724
     39 C          57.3829   93.3399   -3.9317 C.3     1  UNL1        0.0913
     40 C          56.2310   94.2142   -3.5334 C.ar    1  UNL1       -0.0108
     41 C          55.5026   95.0145   -4.5723 C.ar    1  UNL1       -0.0011
     42 C          54.3506   95.8888   -4.1740 C.ar    1  UNL1        0.0293
     43 C          53.9271   95.9629   -2.7368 C.ar    1  UNL1        0.1401
     44 F          52.7752   96.8372   -2.3385 F       1  UNL1       -0.2042
     45 C          54.6555   95.1626   -1.6981 C.ar    1  UNL1        0.0293
     46 C          55.8074   94.2883   -2.0964 C.ar    1  UNL1       -0.0011
@<TRIPOS>BOND
     1     7     8    1
     2     8     6    1
     3     6     9    1
     4     9    10    1
     5     6     5    1
     6     5     4    1
     7     4     1    1
     8     1    11    1
     9    11    12    1
    10    12    13   ar
    11    13    14   ar
    12    14    15   ar
    13    15    18    1
    14    18    19   ar
    15    19    20   ar
    16    20    21   ar
    17    21    24    1
    18    24    25    1
    19    24    26    1
    20    24    27    1
    21    21    22   ar
    22    22    23   ar
    23    15    16   ar
    24    16    17   ar
    25     1     2   am
    26     2     3    2
    27     2    28    1
    28    28    29    1
    29    29    30   ar
    30    30    38    1
    31    38    39    1
    32    39    40    1
    33    40    41   ar
    34    41    42   ar
    35    42    43   ar
    36    43    44    1
    37    43    45   ar
    38    45    46   ar
    39    30    31   ar
    40    31    32   ar
    41    32    33    2
    42    32    34   ar
    43    34    35    1
    44    34    36   ar
    45    36    37    1
    46    17    12   ar
    47    36    29   ar
    48    23    18   ar
    49    46    40   ar
@<TRIPOS>MOLECULE
*****
 46 49 0 0 0
SMALL
GASTEIGER

@<TRIPOS>ATOM
      1 N          60.0373   92.9632    0.8156 N.am    1  UNL1       -0.2724
      2 C          59.3103   93.1285   -0.4860 C.2     1  UNL1        0.2491
      3 O          57.8953   93.6260   -0.4969 O.2     1  UNL1       -0.2727
      4 C          61.4524   92.4657    0.8264 C.3     1  UNL1        0.1111
      5 C          62.5712   93.3782    0.4195 C.3     1  UNL1        0.0939
      6 N          63.1688   94.3239    1.4187 N.3     1  UNL1       -0.2712
      7 C          65.5844   93.4840    0.9607 C.3     1  UNL1        0.0188
      8 C          64.5878   94.1408    1.8692 C.3     1  UNL1        0.0722
      9 C          62.3474   95.4527    1.9673 C.3     1  UNL1        0.0722
     10 C          61.4313   96.2224    1.0627 C.3     1  UNL1        0.0188
     11 C          59.3491   93.2953    2.1064 C.3     1  UNL1        0.1202
     12 C          59.5134   92.3971    3.2966 C.ar    1  UNL1       -0.0023
     13 C          58.3068   91.9274    4.0538 C.ar    1  UNL1       -0.0026
     14 C          58.4711   91.0293    5.2440 C.ar    1  UNL1       -0.0003
     15 C          59.8419   90.6010    5.6768 C.ar    1  UNL1       -0.0000
     16 C          61.0485   91.0707    4.9195 C.ar    1  UNL1       -0.0003
     17 C          60.8842   91.9688    3.7294 C.ar    1  UNL1       -0.0026
     18 C          60.0061   89.7029    6.8670 C.ar    1  UNL1       -0.0000
     19 C          60.7547   90.1861    8.0736 C.ar    1  UNL1       -0.0001
     20 C          60.9190   89.2880    9.2638 C.ar    1  UNL1        0.0039
     21 C          60.3346   87.9066    9.2473 C.ar    1  UNL1        0.0714
     22 C          59.5859   87.4234    8.0406 C.ar    1  UNL1        0.0039
     23 C          59.4217   88.3215    6.8505 C.ar    1  UNL1       -0.0001
     24 C          60.4987   87.0085   10.4374 C.3     1  UNL1        0.4186
     25 F          60.6629   86.1104   11.6275 F       1  UNL1       -0.1659
     26 F          59.7912   88.0155   11.2949 F       1  UNL1       -0.1659
     27 F          61.2063   86.0016    9.5799 F       1  UNL1       -0.1659
     28 C          59.9986   92.7964   -1.7769 C.3     1  UNL1        0.1931
     29 N          59.8980   93.7342   -2.9433 N.ar    1  UNL1       -0.3030
     30 C          58.7799   93.5841   -3.9320 C.ar    1  UNL1        0.1747
     31 N          58.6793   94.5219   -5.0984 N.ar    1  UNL1       -0.1847
     32 C          59.6968   95.6097   -5.2761 C.ar    1  UNL1        0.2779
     33 O          59.5963   96.5474   -6.4425 O.2     1  UNL1       -0.2654
     34 C          60.8148   95.7597   -4.2874 C.ar    1  UNL1        0.0477
     35 C          61.8322   96.8474   -4.4652 C.3     1  UNL1        0.0373
     36 C          60.9154   94.8219   -3.1210 C.ar    1  UNL1        0.0403
     37 C          62.0334   94.9719   -2.1323 C.3     1  UNL1        0.0499
     38 S          57.7625   92.4964   -3.7543 S.3     1  UNL1       -0.0724
     39 C          56.4401   92.5842   -4.4569 C.3     1  UNL1        0.0913
     40 C          55.6171   91.3474   -4.6636 C.ar    1  UNL1       -0.0108
     41 C          55.0218   91.0590   -6.0100 C.ar    1  UNL1       -0.0011
     42 C          54.1988   89.8221   -6.2167 C.ar    1  UNL1        0.0293
     43 C          53.9710   88.8736   -5.0771 C.ar    1  UNL1        0.1401
     44 F          53.1480   87.6367   -5.2839 F       1  UNL1       -0.2042
     45 C          54.5663   89.1620   -3.7309 C.ar    1  UNL1        0.0293
     46 C          55.3893   90.3989   -3.5241 C.ar    1  UNL1       -0.0011
@<TRIPOS>BOND
     1     7     8    1
     2     8     6    1
     3     6     9    1
     4     9    10    1
     5     6     5    1
     6     5     4    1
     7     4     1    1
     8     1    11    1
     9    11    12    1
    10    12    13   ar
    11    13    14   ar
    12    14    15   ar
    13    15    18    1
    14    18    19   ar
    15    19    20   ar
    16    20    21   ar
    17    21    24    1
    18    24    25    1
    19    24    26    1
    20    24    27    1
    21    21    22   ar
    22    22    23   ar
    23    15    16   ar
    24    16    17   ar
    25     1     2   am
    26     2     3    2
    27     2    28    1
    28    28    29    1
    29    29    30   ar
    30    30    38    1
    31    38    39    1
    32    39    40    1
    33    40    41   ar
    34    41    42   ar
    35    42    43   ar
    36    43    44    1
    37    43    45   ar
    38    45    46   ar
    39    30    31   ar
    40    31    32   ar
    41    32    33    2
    42    32    34   ar
    43    34    35    1
    44    34    36   ar
    45    36    37    1
    46    17    12   ar
    47    36    29   ar
    48    23    18   ar
    49    46    40   ar
