@<TRIPOS>MOLECULE
*****
 21 22 0 0 0
SMALL
GASTEIGER

@<TRIPOS>ATOM
      1 C          63.8642   82.0595   13.2108 C.2     1  UNL1        0.2256
      2 O          64.5348   81.9944   11.8706 O.2     1  UNL1       -0.2749
      3 N          63.7603   83.3693   13.9346 N.am    1  UNL1       -0.2789
      4 C          63.0898   83.4344   15.2747 C.3     1  UNL1        0.0978
      5 C          62.9859   84.7441   15.9985 C.3     1  UNL1        0.0442
      6 C          63.5525   85.9887   15.3821 C.2     1  UNL1       -0.0326
      7 C          63.4486   87.2984   16.1059 C.2     1  UNL1        0.0412
      8 C          64.2231   85.9235   14.0420 C.3     1  UNL1        0.0442
      9 C          64.3270   84.6138   13.3182 C.3     1  UNL1        0.0978
     10 C          64.0153   88.5429   15.4895 C.1     1  UNL1       -0.0583
     11 C          64.5820   89.7875   14.8731 C.1     1  UNL1       -0.0405
     12 C          65.1487   91.0321   14.2568 C.ar    1  UNL1        0.1224
     13 C          65.9708   91.9729   15.0869 C.ar    1  UNL1        0.0276
     14 C          66.5375   93.2174   14.4706 C.ar    1  UNL1        0.0034
     15 C          66.2821   93.5212   13.0240 C.ar    1  UNL1        0.0148
     16 C          65.4600   92.5805   12.1939 C.ar    1  UNL1        0.0600
     17 C          65.2046   92.8844   10.7473 C.3     1  UNL1        0.0521
     18 N          64.8933   91.3359   12.8102 N.ar    1  UNL1       -0.2414
     19 C          63.2976   80.8150   13.8271 C.3     1  UNL1        0.0853
     20 C          60.7156   80.8401   14.1149 C.3     1  UNL1        0.0005
     21 C          61.9400   80.3261   13.4172 C.3     1  UNL1        0.0096
@<TRIPOS>BOND
     1    20    21    1
     2    21    19    1
     3    19     1    1
     4     1     2    2
     5     1     3   am
     6     3     4    1
     7     4     5    1
     8     5     6    1
     9     6     7    2
    10     7    10    1
    11    10    11    3
    12    11    12    1
    13    12    13   ar
    14    13    14   ar
    15    14    15   ar
    16    15    16   ar
    17    16    17    1
    18    16    18   ar
    19     6     8    1
    20     8     9    1
    21     9     3    1
    22    18    12   ar
@<TRIPOS>MOLECULE
*****
 21 22 0 0 0
SMALL
GASTEIGER

@<TRIPOS>ATOM
      1 C          66.5086   93.5959   13.6930 C.2     1  UNL1        0.2256
      2 O          66.4814   94.6188   12.5963 O.2     1  UNL1       -0.2749
      3 N          65.7205   92.3271   13.5549 N.am    1  UNL1       -0.2789
      4 C          65.7477   91.3042   14.6516 C.3     1  UNL1        0.0978
      5 C          64.9596   90.0354   14.5136 C.3     1  UNL1        0.0442
      6 C          64.1442   89.7896   13.2788 C.2     1  UNL1       -0.0326
      7 C          63.3561   88.5208   13.1407 C.2     1  UNL1        0.0412
      8 C          64.1170   90.8125   12.1821 C.3     1  UNL1        0.0442
      9 C          64.9051   92.0813   12.3201 C.3     1  UNL1        0.0978
     10 C          62.5408   88.2749   11.9059 C.1     1  UNL1       -0.0583
     11 C          61.7254   88.0291   10.6711 C.1     1  UNL1       -0.0405
     12 C          60.9100   87.7832    9.4363 C.ar    1  UNL1        0.1224
     13 C          60.5923   86.3792    9.0145 C.ar    1  UNL1        0.0276
     14 C          59.7770   86.1333    7.7797 C.ar    1  UNL1        0.0034
     15 C          59.2793   87.2915    6.9667 C.ar    1  UNL1        0.0148
     16 C          59.5970   88.6954    7.3884 C.ar    1  UNL1        0.0600
     17 C          59.0993   89.8536    6.5754 C.3     1  UNL1        0.0521
     18 N          60.4123   88.9413    8.6233 N.ar    1  UNL1       -0.2414
     19 C          67.3239   93.8417   14.9278 C.3     1  UNL1        0.0853
     20 C          68.8268   92.2745   16.3544 C.3     1  UNL1        0.0005
     21 C          68.6198   93.1134   15.1282 C.3     1  UNL1        0.0096
@<TRIPOS>BOND
     1    20    21    1
     2    21    19    1
     3    19     1    1
     4     1     2    2
     5     1     3   am
     6     3     4    1
     7     4     5    1
     8     5     6    1
     9     6     7    2
    10     7    10    1
    11    10    11    3
    12    11    12    1
    13    12    13   ar
    14    13    14   ar
    15    14    15   ar
    16    15    16   ar
    17    16    17    1
    18    16    18   ar
    19     6     8    1
    20     8     9    1
    21     9     3    1
    22    18    12   ar
@<TRIPOS>MOLECULE
*****
 21 22 0 0 0
SMALL
GASTEIGER

@<TRIPOS>ATOM
      1 C          63.0296   82.7697   13.4752 C.2     1  UNL1        0.2256
      2 O          64.0095   82.4988   14.5781 O.2     1  UNL1       -0.2749
      3 N          62.8832   84.1578   12.9261 N.am    1  UNL1       -0.2789
      4 C          61.9033   84.4287   11.8233 C.3     1  UNL1        0.0978
      5 C          61.7569   85.8169   11.2742 C.3     1  UNL1        0.0442
      6 C          62.5905   86.9342   11.8279 C.2     1  UNL1       -0.0326
      7 C          62.4441   88.3224   11.2788 C.2     1  UNL1        0.0412
      8 C          63.5704   86.6634   12.9308 C.3     1  UNL1        0.0442
      9 C          63.7168   85.2752   13.4799 C.3     1  UNL1        0.0978
     10 C          63.2776   89.4398   11.8326 C.1     1  UNL1       -0.0583
     11 C          64.1112   90.5571   12.3865 C.1     1  UNL1       -0.0405
     12 C          64.9447   91.6745   12.9402 C.ar    1  UNL1        0.1224
     13 C          65.3425   92.8214   12.0590 C.ar    1  UNL1        0.0276
     14 C          66.1760   93.9387   12.6128 C.ar    1  UNL1        0.0034
     15 C          66.6119   93.9093   14.0478 C.ar    1  UNL1        0.0148
     16 C          66.2141   92.7624   14.9290 C.ar    1  UNL1        0.0600
     17 C          66.6500   92.7330   16.3640 C.3     1  UNL1        0.0521
     18 N          65.3806   91.6450   14.3752 N.ar    1  UNL1       -0.2414
     19 C          62.1961   81.6523   12.9214 C.3     1  UNL1        0.0853
     20 C          60.1702   80.5602   14.1270 C.3     1  UNL1        0.0005
     21 C          61.6419   80.6037   13.8398 C.3     1  UNL1        0.0096
@<TRIPOS>BOND
     1    20    21    1
     2    21    19    1
     3    19     1    1
     4     1     2    2
     5     1     3   am
     6     3     4    1
     7     4     5    1
     8     5     6    1
     9     6     7    2
    10     7    10    1
    11    10    11    3
    12    11    12    1
    13    12    13   ar
    14    13    14   ar
    15    14    15   ar
    16    15    16   ar
    17    16    17    1
    18    16    18   ar
    19     6     8    1
    20     8     9    1
    21     9     3    1
    22    18    12   ar
@<TRIPOS>MOLECULE
*****
 21 22 0 0 0
SMALL
GASTEIGER

@<TRIPOS>ATOM
      1 C          63.2591   81.8303   12.8776 C.2     1  UNL1        0.2256
      2 O          64.0373   81.3379   14.0616 O.2     1  UNL1       -0.2749
      3 N          63.1480   83.3025   12.6127 N.am    1  UNL1       -0.2789
      4 C          62.3699   83.7949   11.4287 C.3     1  UNL1        0.0978
      5 C          62.2588   85.2672   11.1639 C.3     1  UNL1        0.0442
      6 C          62.9259   86.2470   12.0830 C.2     1  UNL1       -0.0326
      7 C          62.8148   87.7193   11.8182 C.2     1  UNL1        0.0412
      8 C          63.7040   85.7546   13.2670 C.3     1  UNL1        0.0442
      9 C          63.8151   84.2823   13.5319 C.3     1  UNL1        0.0978
     10 C          63.4819   88.6991   12.7373 C.1     1  UNL1       -0.0583
     11 C          64.1490   89.6790   13.6565 C.1     1  UNL1       -0.0405
     12 C          64.8160   90.6588   14.5757 C.ar    1  UNL1        0.1224
     13 C          64.0734   91.2006   15.7611 C.ar    1  UNL1        0.0276
     14 C          64.7405   92.1804   16.6802 C.ar    1  UNL1        0.0034
     15 C          66.1502   92.6185   16.4140 C.ar    1  UNL1        0.0148
     16 C          66.8928   92.0768   15.2287 C.ar    1  UNL1        0.0600
     17 C          68.3025   92.5150   14.9625 C.3     1  UNL1        0.0521
     18 N          66.2257   91.0970   14.3095 N.ar    1  UNL1       -0.2414
     19 C          62.5920   80.8504   11.9585 C.3     1  UNL1        0.0853
     20 C          62.7807   79.3845    9.8217 C.3     1  UNL1        0.0005
     21 C          63.1299   80.6338   10.5751 C.3     1  UNL1        0.0096
@<TRIPOS>BOND
     1    20    21    1
     2    21    19    1
     3    19     1    1
     4     1     2    2
     5     1     3   am
     6     3     4    1
     7     4     5    1
     8     5     6    1
     9     6     7    2
    10     7    10    1
    11    10    11    3
    12    11    12    1
    13    12    13   ar
    14    13    14   ar
    15    14    15   ar
    16    15    16   ar
    17    16    17    1
    18    16    18   ar
    19     6     8    1
    20     8     9    1
    21     9     3    1
    22    18    12   ar
@<TRIPOS>MOLECULE
*****
 21 22 0 0 0
SMALL
GASTEIGER

@<TRIPOS>ATOM
      1 C          63.9972   87.5280   13.8188 C.2     1  UNL1        0.2256
      2 O          64.4325   88.9333   14.1114 O.2     1  UNL1       -0.2749
      3 N          63.1469   87.2411   12.6169 N.am    1  UNL1       -0.2789
      4 C          62.7117   85.8358   12.3243 C.3     1  UNL1        0.0978
      5 C          61.8613   85.5488   11.1224 C.3     1  UNL1        0.0442
      6 C          61.4462   86.6672   10.2131 C.2     1  UNL1       -0.0326
      7 C          60.5958   86.3803    9.0112 C.2     1  UNL1        0.0412
      8 C          61.8814   88.0725   10.5057 C.3     1  UNL1        0.0442
      9 C          62.7318   88.3594   11.7076 C.3     1  UNL1        0.0978
     10 C          60.1807   87.4986    8.1019 C.1     1  UNL1       -0.0583
     11 C          59.7656   88.6171    7.1926 C.1     1  UNL1       -0.0405
     12 C          59.3505   89.7355    6.2833 C.ar    1  UNL1        0.1224
     13 C          60.3909   90.5538    5.5776 C.ar    1  UNL1        0.0276
     14 C          59.9757   91.6722    4.6683 C.ar    1  UNL1        0.0034
     15 C          58.5202   91.9723    4.4646 C.ar    1  UNL1        0.0148
     16 C          57.4799   91.1540    5.1703 C.ar    1  UNL1        0.0600
     17 C          56.0244   91.4541    4.9666 C.3     1  UNL1        0.0521
     18 N          57.8950   90.0355    6.0796 N.ar    1  UNL1       -0.2414
     19 C          64.4124   86.4097   14.7281 C.3     1  UNL1        0.0853
     20 C          63.1478   87.2988   16.8163 C.3     1  UNL1        0.0005
     21 C          63.6499   86.1495   15.9934 C.3     1  UNL1        0.0096
@<TRIPOS>BOND
     1    20    21    1
     2    21    19    1
     3    19     1    1
     4     1     2    2
     5     1     3   am
     6     3     4    1
     7     4     5    1
     8     5     6    1
     9     6     7    2
    10     7    10    1
    11    10    11    3
    12    11    12    1
    13    12    13   ar
    14    13    14   ar
    15    14    15   ar
    16    15    16   ar
    17    16    17    1
    18    16    18   ar
    19     6     8    1
    20     8     9    1
    21     9     3    1
    22    18    12   ar
@<TRIPOS>MOLECULE
*****
 21 22 0 0 0
SMALL
GASTEIGER

@<TRIPOS>ATOM
      1 C          62.8630   82.1655   12.1116 C.2     1  UNL1        0.2256
      2 O          63.1793   82.3077   10.6523 O.2     1  UNL1       -0.2749
      3 N          63.0618   83.3276   13.0389 N.am    1  UNL1       -0.2789
      4 C          62.7455   83.1854   14.4982 C.3     1  UNL1        0.0978
      5 C          62.9443   84.3476   15.4255 C.3     1  UNL1        0.0442
      6 C          63.4594   85.6520   14.8934 C.2     1  UNL1       -0.0326
      7 C          63.6583   86.8142   15.8207 C.2     1  UNL1        0.0412
      8 C          63.7758   85.7942   13.4341 C.3     1  UNL1        0.0442
      9 C          63.5769   84.6321   12.5068 C.3     1  UNL1        0.0978
     10 C          64.1734   88.1186   15.2886 C.1     1  UNL1       -0.0583
     11 C          64.6886   89.4230   14.7565 C.1     1  UNL1       -0.0405
     12 C          65.2037   90.7274   14.2245 C.ar    1  UNL1        0.1224
     13 C          64.6941   91.2579   12.9172 C.ar    1  UNL1        0.0276
     14 C          65.2092   92.5623   12.3851 C.ar    1  UNL1        0.0034
     15 C          66.2339   93.3363   13.1603 C.ar    1  UNL1        0.0148
     16 C          66.7435   92.8059   14.4675 C.ar    1  UNL1        0.0600
     17 C          67.7682   93.5799   15.2427 C.3     1  UNL1        0.0521
     18 N          66.2284   91.5014   14.9996 N.ar    1  UNL1       -0.2414
     19 C          62.3479   80.8611   12.6437 C.3     1  UNL1        0.0853
     20 C          62.7855   79.4362   10.5157 C.3     1  UNL1        0.0005
     21 C          62.7762   79.5709   12.0097 C.3     1  UNL1        0.0096
@<TRIPOS>BOND
     1    20    21    1
     2    21    19    1
     3    19     1    1
     4     1     2    2
     5     1     3   am
     6     3     4    1
     7     4     5    1
     8     5     6    1
     9     6     7    2
    10     7    10    1
    11    10    11    3
    12    11    12    1
    13    12    13   ar
    14    13    14   ar
    15    14    15   ar
    16    15    16   ar
    17    16    17    1
    18    16    18   ar
    19     6     8    1
    20     8     9    1
    21     9     3    1
    22    18    12   ar
@<TRIPOS>MOLECULE
*****
 21 22 0 0 0
SMALL
GASTEIGER

@<TRIPOS>ATOM
      1 C          65.7609   93.3265   12.3985 C.2     1  UNL1        0.2256
      2 O          66.6328   93.1864   13.6109 O.2     1  UNL1       -0.2749
      3 N          64.9205   92.1710   11.9415 N.am    1  UNL1       -0.2789
      4 C          64.0486   92.3111   10.7291 C.3     1  UNL1        0.0978
      5 C          63.2083   91.1556   10.2721 C.3     1  UNL1        0.0442
      6 C          63.2399   89.8601   11.0275 C.2     1  UNL1       -0.0326
      7 C          62.3996   88.7047   10.5705 C.2     1  UNL1        0.0412
      8 C          64.1119   89.7201   12.2399 C.3     1  UNL1        0.0442
      9 C          64.9522   90.8756   12.6969 C.3     1  UNL1        0.0978
     10 C          62.4313   87.4092   11.3259 C.1     1  UNL1       -0.0583
     11 C          62.4629   86.1137   12.0814 C.1     1  UNL1       -0.0405
     12 C          62.4946   84.8182   12.8368 C.ar    1  UNL1        0.1224
     13 C          62.4431   84.8227   14.3359 C.ar    1  UNL1        0.0276
     14 C          62.4747   83.5273   15.0914 C.ar    1  UNL1        0.0034
     15 C          62.5579   82.2273   14.3477 C.ar    1  UNL1        0.0148
     16 C          62.6093   82.2227   12.8486 C.ar    1  UNL1        0.0600
     17 C          62.6925   80.9227   12.1050 C.3     1  UNL1        0.0521
     18 N          62.5777   83.5182   12.0931 N.ar    1  UNL1       -0.2414
     19 C          65.7292   94.6219   11.6431 C.3     1  UNL1        0.0853
     20 C          67.2585   93.8439    9.6921 C.3     1  UNL1        0.0005
     21 C          66.7877   94.9216   10.6233 C.3     1  UNL1        0.0096
@<TRIPOS>BOND
     1    20    21    1
     2    21    19    1
     3    19     1    1
     4     1     2    2
     5     1     3   am
     6     3     4    1
     7     4     5    1
     8     5     6    1
     9     6     7    2
    10     7    10    1
    11    10    11    3
    12    11    12    1
    13    12    13   ar
    14    13    14   ar
    15    14    15   ar
    16    15    16   ar
    17    16    17    1
    18    16    18   ar
    19     6     8    1
    20     8     9    1
    21     9     3    1
    22    18    12   ar
@<TRIPOS>MOLECULE
*****
 21 22 0 0 0
SMALL
GASTEIGER

@<TRIPOS>ATOM
      1 C          59.3554   88.9831    7.1051 C.2     1  UNL1        0.2256
      2 O          58.5469   88.0515    6.2516 O.2     1  UNL1       -0.2749
      3 N          60.1680   88.4420    8.2439 N.am    1  UNL1       -0.2789
      4 C          60.9766   89.3736    9.0974 C.3     1  UNL1        0.0978
      5 C          61.7892   88.8325   10.2363 C.3     1  UNL1        0.0442
      6 C          61.7933   87.3600   10.5216 C.2     1  UNL1       -0.0326
      7 C          62.6059   86.8189   11.6605 C.2     1  UNL1        0.0412
      8 C          60.9847   86.4284    9.6681 C.3     1  UNL1        0.0442
      9 C          60.1721   86.9695    8.5293 C.3     1  UNL1        0.0978
     10 C          62.6099   85.3464   11.9458 C.1     1  UNL1       -0.0583
     11 C          62.6140   83.8737   12.2311 C.1     1  UNL1       -0.0405
     12 C          62.6181   82.4011   12.5165 C.ar    1  UNL1        0.1224
     13 C          62.4869   81.9103   13.9279 C.ar    1  UNL1        0.0276
     14 C          62.4910   80.4377   14.2132 C.ar    1  UNL1        0.0034
     15 C          62.6263   79.4559   13.0873 C.ar    1  UNL1        0.0148
     16 C          62.7574   79.9467   11.6759 C.ar    1  UNL1        0.0600
     17 C          62.8927   78.9649   10.5500 C.3     1  UNL1        0.0521
     18 N          62.7534   81.4193   11.3905 N.ar    1  UNL1       -0.2414
     19 C          59.3514   90.4556    6.8197 C.3     1  UNL1        0.0853
     20 C          57.5964   91.2707    5.0860 C.3     1  UNL1        0.0005
     21 C          59.0178   90.9521    5.4442 C.3     1  UNL1        0.0096
@<TRIPOS>BOND
     1    20    21    1
     2    21    19    1
     3    19     1    1
     4     1     2    2
     5     1     3   am
     6     3     4    1
     7     4     5    1
     8     5     6    1
     9     6     7    2
    10     7    10    1
    11    10    11    3
    12    11    12    1
    13    12    13   ar
    14    13    14   ar
    15    14    15   ar
    16    15    16   ar
    17    16    17    1
    18    16    18   ar
    19     6     8    1
    20     8     9    1
    21     9     3    1
    22    18    12   ar
@<TRIPOS>MOLECULE
*****
 21 22 0 0 0
SMALL
GASTEIGER

@<TRIPOS>ATOM
      1 C          65.8007   91.9386   14.4327 C.2     1  UNL1        0.2256
      2 O          66.8099   91.3686   15.3847 O.2     1  UNL1       -0.2749
      3 N          64.9104   91.0227   13.6464 N.am    1  UNL1       -0.2789
      4 C          63.9012   91.5928   12.6943 C.3     1  UNL1        0.0978
      5 C          63.0108   90.6768   11.9080 C.3     1  UNL1        0.0442
      6 C          63.1296   89.1908   12.0738 C.2     1  UNL1       -0.0326
      7 C          62.2392   88.2748   11.2876 C.2     1  UNL1        0.0412
      8 C          64.1388   88.6207   13.0259 C.3     1  UNL1        0.0442
      9 C          65.0292   89.5367   13.8122 C.3     1  UNL1        0.0978
     10 C          62.3580   86.7888   11.4534 C.1     1  UNL1       -0.0583
     11 C          62.4768   85.3027   11.6191 C.1     1  UNL1       -0.0405
     12 C          62.5956   83.8166   11.7849 C.ar    1  UNL1        0.1224
     13 C          63.2620   82.9942   10.7220 C.ar    1  UNL1        0.0276
     14 C          63.3808   81.5082   10.8878 C.ar    1  UNL1        0.0034
     15 C          62.8332   80.8445   12.1165 C.ar    1  UNL1        0.0148
     16 C          62.1669   81.6668   13.1794 C.ar    1  UNL1        0.0600
     17 C          61.6193   81.0030   14.4080 C.3     1  UNL1        0.0521
     18 N          62.0480   83.1529   13.0136 N.ar    1  UNL1       -0.2414
     19 C          65.6819   93.4247   14.2669 C.3     1  UNL1        0.0853
     20 C          66.3969   93.7780   11.7942 C.3     1  UNL1        0.0005
     21 C          66.5205   94.1349   13.2459 C.3     1  UNL1        0.0096
@<TRIPOS>BOND
     1    20    21    1
     2    21    19    1
     3    19     1    1
     4     1     2    2
     5     1     3   am
     6     3     4    1
     7     4     5    1
     8     5     6    1
     9     6     7    2
    10     7    10    1
    11    10    11    3
    12    11    12    1
    13    12    13   ar
    14    13    14   ar
    15    14    15   ar
    16    15    16   ar
    17    16    17    1
    18    16    18   ar
    19     6     8    1
    20     8     9    1
    21     9     3    1
    22    18    12   ar
