@<TRIPOS>MOLECULE
*****
 39 44 0 0 0
SMALL
GASTEIGER

@<TRIPOS>ATOM
      1 C          59.0070   87.2706    8.0329 C.3     1  UNL1        0.1122
      2 N          60.0750   88.2050    8.5191 N.am    1  UNL1       -0.2870
      3 C          60.5741   88.1043    9.9301 C.2     1  UNL1        0.3043
      4 O          60.0052   87.0693   10.8548 O.2     1  UNL1       -0.2526
      5 N          61.6420   89.0387   10.4163 N.am    1  UNL1       -0.2596
      6 C          62.2109   90.0737    9.4916 C.3     1  UNL1        0.1015
      7 C          63.2789   91.0080    9.9779 C.3     1  UNL1        0.0668
      8 C          63.7779   90.9074   11.3888 C.ar    1  UNL1        0.0576
      9 C          63.2090   89.8724   12.3135 C.ar    1  UNL1        0.0446
     10 C          63.8937   90.0103   13.6410 C.ar    1  UNL1        0.1538
     11 N          64.8857   91.1306   13.5368 N.ar    1  UNL1       -0.1545
     12 N          64.8142   91.6850   12.1448 N.ar    1  UNL1       -0.2557
     13 C          62.1411   88.9380   11.8273 C.3     1  UNL1        0.1257
     14 H          60.4484   88.8843    7.9122 H       1  UNL1        0.1510
     15 N          63.6322   89.1746   14.8590 N.pl3   1  UNL1       -0.2715
     16 C          63.4932   89.8287   16.2017 C.3     1  UNL1        0.0973
     17 C          63.2317   88.9931   17.4195 C.3     1  UNL1        0.0266
     18 C          63.1092   87.5033   17.2947 C.3     1  UNL1        0.0294
     19 C          63.2481   86.8492   15.9520 C.ar    1  UNL1       -0.0085
     20 C          63.1255   85.3594   15.8272 C.ar    1  UNL1       -0.0031
     21 C          63.2645   84.7053   14.4846 C.ar    1  UNL1        0.0041
     22 C          63.5260   85.5410   13.2666 C.ar    1  UNL1        0.0449
     23 C          63.6486   87.0308   13.3914 C.ar    1  UNL1        0.0157
     24 C          63.5096   87.6849   14.7342 C.ar    1  UNL1        0.0486
     25 C          63.1419   83.2156   14.3598 C.ar    1  UNL1        0.0395
     26 C          64.2736   82.2316   14.3966 C.ar    1  UNL1        0.1216
     27 N          63.6972   80.8561   14.2358 N.ar    1  UNL1       -0.1676
     28 N          62.2094   80.9899   14.0997 N.ar    1  UNL1       -0.2473
     29 C          61.2358   79.8634   13.9187 C.3     1  UNL1        0.1538
     30 C          61.8662   82.4481   14.1763 C.ar    1  UNL1        0.0967
     31 C          63.6649   84.8869   11.9240 C.3     1  UNL1        0.3410
     32 F          62.7411   85.2675   10.8051 F       1  UNL1       -0.1933
     33 F          64.7276   83.8522   11.7001 F       1  UNL1       -0.1933
     34 C          65.6348   92.8181   11.6039 C.3     1  UNL1        0.1098
     35 C          66.3016   92.6895   10.2664 C.3     1  UNL1        0.0565
     36 C          67.1223   93.8226    9.7255 C.3     1  UNL1        0.1442
     37 O          67.2761   95.0843   10.5220 O.3     1  UNL1       -0.3536
     38 C          66.6092   95.2129   11.8595 C.3     1  UNL1        0.1442
     39 C          65.7887   94.0798   12.4003 C.3     1  UNL1        0.0565
@<TRIPOS>BOND
     1     1     2    1
     2     2     3   am
     3     3     4    2
     4     3     5   am
     5     5     6    1
     6     6     7    1
     7     7     8    1
     8     8     9   ar
     9     9    10   ar
    10    10    15    1
    11    15    16    1
    12    16    17    1
    13    17    18    1
    14    18    19    1
    15    19    20   ar
    16    20    21   ar
    17    21    25    1
    18    25    26   ar
    19    26    27   ar
    20    27    28   ar
    21    28    29    1
    22    28    30   ar
    23    21    22   ar
    24    22    31    1
    25    31    32    1
    26    31    33    1
    27    22    23   ar
    28    23    24   ar
    29    10    11   ar
    30    11    12   ar
    31    12    34    1
    32    34    35    1
    33    35    36    1
    34    36    37    1
    35    37    38    1
    36    38    39    1
    37     9    13    1
    38    13     5    1
    39    12     8   ar
    40    39    34    1
    41    24    15    1
    42    24    19   ar
    43    30    25   ar
    44     2    14    1
@<TRIPOS>MOLECULE
*****
 39 44 0 0 0
SMALL
GASTEIGER

@<TRIPOS>ATOM
      1 C          59.2482   87.6055    7.6528 C.3     1  UNL1        0.1122
      2 N          60.2425   88.3887    8.4578 N.am    1  UNL1       -0.2870
      3 C          60.6896   87.8813    9.7967 C.2     1  UNL1        0.3043
      4 O          60.1424   86.5908   10.3306 O.2     1  UNL1       -0.2526
      5 N          61.6839   88.6644   10.6016 N.am    1  UNL1       -0.2596
      6 C          62.2312   89.9550   10.0677 C.3     1  UNL1        0.1015
      7 C          63.2255   90.7381   10.8727 C.3     1  UNL1        0.0668
      8 C          63.6726   90.2307   12.2115 C.ar    1  UNL1        0.0576
      9 C          63.1254   88.9402   12.7455 C.ar    1  UNL1        0.0446
     10 C          63.7478   88.6928   14.0877 C.ar    1  UNL1        0.1538
     11 N          64.6797   89.8305   14.3833 N.ar    1  UNL1       -0.1545
     12 N          64.6332   90.7809   13.2238 N.ar    1  UNL1       -0.2557
     13 C          62.1311   88.1571   11.9406 C.3     1  UNL1        0.1257
     14 H          60.6017   89.2357    8.1073 H       1  UNL1        0.1510
     15 N          63.4845   87.5146   14.9780 N.pl3   1  UNL1       -0.2715
     16 C          63.3508   87.7090   16.4593 C.3     1  UNL1        0.0973
     17 C          63.0875   86.5308   17.3495 C.3     1  UNL1        0.0266
     18 C          62.9579   85.1583   16.7584 C.3     1  UNL1        0.0294
     19 C          63.0916   84.9639   15.2771 C.ar    1  UNL1       -0.0085
     20 C          62.9620   83.5914   14.6860 C.ar    1  UNL1       -0.0031
     21 C          63.0957   83.3971   13.2047 C.ar    1  UNL1        0.0041
     22 C          63.3590   84.5753   12.3144 C.ar    1  UNL1        0.0449
     23 C          63.4886   85.9478   12.9055 C.ar    1  UNL1        0.0157
     24 C          63.3549   86.1421   14.3869 C.ar    1  UNL1        0.0486
     25 C          62.9661   82.0245   12.6136 C.ar    1  UNL1        0.0395
     26 C          62.7115   80.7572   13.3747 C.ar    1  UNL1        0.1216
     27 N          62.6564   79.6278   12.3891 N.ar    1  UNL1       -0.1676
     28 N          62.8770   80.1970   11.0189 N.ar    1  UNL1       -0.2473
     29 C          62.9018   79.4212    9.7355 C.3     1  UNL1        0.1538
     30 C          63.0684   81.6783   11.1577 C.ar    1  UNL1        0.0967
     31 C          63.4927   84.3809   10.8331 C.3     1  UNL1        0.3410
     32 F          64.7089   83.7055   10.2720 F       1  UNL1       -0.1933
     33 F          62.4103   84.8620    9.9128 F       1  UNL1       -0.1933
     34 C          65.4109   92.0575   13.0985 C.3     1  UNL1        0.1098
     35 C          66.0844   92.6467   14.3023 C.3     1  UNL1        0.0565
     36 C          66.8620   93.9232   14.1770 C.3     1  UNL1        0.1442
     37 O          66.9661   94.6106   12.8479 O.3     1  UNL1       -0.3536
     38 C          66.2925   94.0214   11.6440 C.3     1  UNL1        0.1442
     39 C          65.5150   92.7449   11.7694 C.3     1  UNL1        0.0565
@<TRIPOS>BOND
     1     1     2    1
     2     2     3   am
     3     3     4    2
     4     3     5   am
     5     5     6    1
     6     6     7    1
     7     7     8    1
     8     8     9   ar
     9     9    10   ar
    10    10    15    1
    11    15    16    1
    12    16    17    1
    13    17    18    1
    14    18    19    1
    15    19    20   ar
    16    20    21   ar
    17    21    25    1
    18    25    26   ar
    19    26    27   ar
    20    27    28   ar
    21    28    29    1
    22    28    30   ar
    23    21    22   ar
    24    22    31    1
    25    31    32    1
    26    31    33    1
    27    22    23   ar
    28    23    24   ar
    29    10    11   ar
    30    11    12   ar
    31    12    34    1
    32    34    35    1
    33    35    36    1
    34    36    37    1
    35    37    38    1
    36    38    39    1
    37     9    13    1
    38    13     5    1
    39    12     8   ar
    40    39    34    1
    41    24    15    1
    42    24    19   ar
    43    30    25   ar
    44     2    14    1
@<TRIPOS>MOLECULE
*****
 39 44 0 0 0
SMALL
GASTEIGER

@<TRIPOS>ATOM
      1 C          62.7122   87.1330   19.1253 C.3     1  UNL1        0.1122
      2 N          63.1627   88.1005   18.0712 N.am    1  UNL1       -0.2870
      3 C          62.7511   87.8988   16.6429 C.2     1  UNL1        0.3043
      4 O          61.8891   86.7296   16.2688 O.2     1  UNL1       -0.2526
      5 N          63.2015   88.8662   15.5888 N.am    1  UNL1       -0.2596
      6 C          64.0635   90.0354   15.9630 C.3     1  UNL1        0.1015
      7 C          64.5139   91.0028   14.9088 C.3     1  UNL1        0.0668
      8 C          64.1023   90.8011   13.4806 C.ar    1  UNL1        0.0576
      9 C          63.2403   89.6320   13.1064 C.ar    1  UNL1        0.0446
     10 C          62.9953   89.6911   11.6278 C.ar    1  UNL1        0.1538
     11 N          63.7058   90.8968   11.0880 N.ar    1  UNL1       -0.1545
     12 N          64.3900   91.5829   12.2331 N.ar    1  UNL1       -0.2557
     13 C          62.7899   88.6645   14.1605 C.3     1  UNL1        0.1257
     14 H          63.7284   88.8679   18.3167 H       1  UNL1        0.1510
     15 N          62.1823   88.7157   10.8291 N.pl3   1  UNL1       -0.2715
     16 C          61.2582   89.2109    9.7564 C.3     1  UNL1        0.0973
     17 C          60.4453   88.2355    8.9577 C.3     1  UNL1        0.0266
     18 C          60.5566   86.7650    9.2318 C.3     1  UNL1        0.0294
     19 C          61.4808   86.2698   10.3045 C.ar    1  UNL1       -0.0085
     20 C          61.5920   84.7992   10.5786 C.ar    1  UNL1       -0.0031
     21 C          62.5162   84.3041   11.6513 C.ar    1  UNL1        0.0041
     22 C          63.3291   85.2795   12.4500 C.ar    1  UNL1        0.0449
     23 C          63.2178   86.7500   12.1759 C.ar    1  UNL1        0.0157
     24 C          62.2936   87.2452   11.1031 C.ar    1  UNL1        0.0486
     25 C          62.6275   82.8335   11.9253 C.ar    1  UNL1        0.0395
     26 C          63.2668   81.8154   11.0282 C.ar    1  UNL1        0.1216
     27 N          63.1534   80.4755   11.6931 N.ar    1  UNL1       -0.1676
     28 N          62.4440   80.6656   13.0011 N.ar    1  UNL1       -0.2473
     29 C          62.1171   79.5877   13.9915 C.3     1  UNL1        0.1538
     30 C          62.1190   82.1229   13.1446 C.ar    1  UNL1        0.0967
     31 C          64.2532   84.7843   13.5227 C.3     1  UNL1        0.3410
     32 F          64.3706   85.5342   14.8165 F       1  UNL1       -0.1933
     33 F          65.0601   83.5392   13.3016 F       1  UNL1       -0.1933
     34 C          65.2168   92.8315   12.1460 C.3     1  UNL1        0.1098
     35 C          65.9233   93.3496   13.3635 C.3     1  UNL1        0.0565
     36 C          66.7500   94.5981   13.2765 C.3     1  UNL1        0.1442
     37 O          66.8702   95.3285   11.9719 O.3     1  UNL1       -0.3536
     38 C          66.1636   94.8104   10.7543 C.3     1  UNL1        0.1442
     39 C          65.3370   93.5619   10.8414 C.3     1  UNL1        0.0565
@<TRIPOS>BOND
     1     1     2    1
     2     2     3   am
     3     3     4    2
     4     3     5   am
     5     5     6    1
     6     6     7    1
     7     7     8    1
     8     8     9   ar
     9     9    10   ar
    10    10    15    1
    11    15    16    1
    12    16    17    1
    13    17    18    1
    14    18    19    1
    15    19    20   ar
    16    20    21   ar
    17    21    25    1
    18    25    26   ar
    19    26    27   ar
    20    27    28   ar
    21    28    29    1
    22    28    30   ar
    23    21    22   ar
    24    22    31    1
    25    31    32    1
    26    31    33    1
    27    22    23   ar
    28    23    24   ar
    29    10    11   ar
    30    11    12   ar
    31    12    34    1
    32    34    35    1
    33    35    36    1
    34    36    37    1
    35    37    38    1
    36    38    39    1
    37     9    13    1
    38    13     5    1
    39    12     8   ar
    40    39    34    1
    41    24    15    1
    42    24    19   ar
    43    30    25   ar
    44     2    14    1
