@<TRIPOS>MOLECULE
*****
 29 33 0 0 0
SMALL
GASTEIGER

@<TRIPOS>ATOM
      1 C          63.8554   86.8651   15.2871 C.ar    1  UNL1        0.1655
      2 N          63.7088   85.8306   14.2108 N.ar    1  UNL1       -0.2239
      3 C          63.0714   84.6164   14.8186 C.ar    1  UNL1        0.0913
      4 C          62.8241   84.9005   16.2705 C.ar    1  UNL1        0.0573
      5 S          63.3086   86.2902   16.5600 S.2     1  UNL1       -0.0508
      6 C          62.7396   83.3419   14.1005 C.ar    1  UNL1        0.0403
      7 C          61.8841   82.2290   14.6294 C.ar    1  UNL1        0.1021
      8 N          61.8208   81.1558   13.5833 N.ar    1  UNL1       -0.2269
      9 C          62.6372   81.6054   12.4080 C.ar    1  UNL1        0.1406
     10 N          62.9368   80.9591   11.0880 N.ar    1  UNL1       -0.3374
     11 C          63.8043   81.6639   10.0876 C.ar    1  UNL1        0.0735
     12 C          64.3721   83.0150   10.4072 C.ar    1  UNL1        0.0186
     13 C          64.0725   83.6613   11.7272 C.ar    1  UNL1        0.0046
     14 C          63.2050   82.9565   12.7276 C.ar    1  UNL1        0.0370
     15 H          62.5641   80.0724   10.8782 H       1  UNL1        0.1674
     16 O          62.2356   89.2918   15.9848 O.2     1  UNL1       -0.2744
     17 C          63.6353   89.4474   15.4686 C.2     1  UNL1        0.2320
     18 N          64.4452   88.2340   15.1197 N.am    1  UNL1       -0.2639
     19 H          65.3639   88.3361   14.7809 H       1  UNL1        0.1567
     20 C          64.2252   90.8164   15.3012 C.3     1  UNL1        0.1118
     21 C          64.5496   91.3308   13.9299 C.ar    1  UNL1       -0.0099
     22 C          63.7078   90.9231   12.7574 C.ar    1  UNL1       -0.0005
     23 C          64.0323   91.4374   11.3862 C.ar    1  UNL1        0.0399
     24 C          65.1986   92.3595   11.1876 C.ar    1  UNL1        0.1764
     25 C          66.0405   92.7672   12.3602 C.ar    1  UNL1        0.1761
     26 C          65.7160   92.2529   13.7314 C.ar    1  UNL1        0.0364
     27 O          67.1192   93.6820   11.8607 O.3     1  UNL1       -0.4346
     28 C          66.9440   93.8395   10.3793 C.3     1  UNL1        0.4294
     29 O          65.7570   93.0222    9.9633 O.3     1  UNL1       -0.4346
@<TRIPOS>BOND
     1    16    17    2
     2    17    20    1
     3    20    21    1
     4    21    22   ar
     5    22    23   ar
     6    23    24   ar
     7    24    25   ar
     8    25    26   ar
     9    25    27    1
    10    27    28    1
    11    28    29    1
    12    17    18   am
    13    18     1    1
    14     1     2   ar
    15     2     3   ar
    16     3     6    1
    17     6     7   ar
    18     7     8   ar
    19     8     9   ar
    20     9    10   ar
    21    10    11   ar
    22    11    12   ar
    23    12    13   ar
    24    13    14   ar
    25     3     4   ar
    26     4     5   ar
    27    26    21   ar
    28     5     1   ar
    29    29    24    1
    30    14     6   ar
    31    14     9    1
    32    18    19    1
    33    10    15    1
@<TRIPOS>MOLECULE
*****
 29 33 0 0 0
SMALL
GASTEIGER

@<TRIPOS>ATOM
      1 C          62.7061   87.7601   12.1242 C.ar    1  UNL1        0.1655
      2 N          63.3155   86.4048   12.3286 N.ar    1  UNL1       -0.2239
      3 C          62.6634   85.4539   11.3691 C.ar    1  UNL1        0.0913
      4 C          61.6511   86.2215   10.5717 C.ar    1  UNL1        0.0573
      5 S          61.6775   87.6468   11.0384 S.2     1  UNL1       -0.0508
      6 C          62.9699   83.9920   11.2313 C.ar    1  UNL1        0.0403
      7 C          63.6291   83.3366   10.0540 C.ar    1  UNL1        0.1021
      8 N          63.7376   81.8684   10.3416 N.ar    1  UNL1       -0.2269
      9 C          63.1454   81.6165   11.6965 C.ar    1  UNL1        0.1406
     10 N          62.9770   80.3615   12.5007 N.ar    1  UNL1       -0.3374
     11 C          62.3341   80.4190   13.8547 C.ar    1  UNL1        0.0735
     12 C          61.8597   81.7314   14.4046 C.ar    1  UNL1        0.0186
     13 C          62.0281   82.9864   13.6004 C.ar    1  UNL1        0.0046
     14 C          62.6710   82.9289   12.2464 C.ar    1  UNL1        0.0370
     15 H          63.2884   79.5001   12.1398 H       1  UNL1        0.1674
     16 O          64.4901   87.6071   14.5312 O.2     1  UNL1       -0.2744
     17 C          63.9548   88.9329   14.0775 C.2     1  UNL1        0.2320
     18 N          63.0628   89.0093   12.8740 N.am    1  UNL1       -0.2639
     19 H          62.7114   89.8795   12.5761 H       1  UNL1        0.1567
     20 C          64.3115   90.1821   14.8273 C.3     1  UNL1        0.1118
     21 C          64.9879   91.3165   14.1160 C.ar    1  UNL1       -0.0099
     22 C          65.9876   92.1672   14.8417 C.ar    1  UNL1       -0.0005
     23 C          66.6640   93.3015   14.1304 C.ar    1  UNL1        0.0399
     24 C          66.3406   93.5850   12.6934 C.ar    1  UNL1        0.1764
     25 C          65.3408   92.7343   11.9677 C.ar    1  UNL1        0.1761
     26 C          64.6644   91.6000   12.6789 C.ar    1  UNL1        0.0364
     27 O          65.2257   93.2499   10.5638 O.3     1  UNL1       -0.4346
     28 C          66.1543   94.4193   10.4219 C.3     1  UNL1        0.4294
     29 O          66.8433   94.6264   11.7381 O.3     1  UNL1       -0.4346
@<TRIPOS>BOND
     1    16    17    2
     2    17    20    1
     3    20    21    1
     4    21    22   ar
     5    22    23   ar
     6    23    24   ar
     7    24    25   ar
     8    25    26   ar
     9    25    27    1
    10    27    28    1
    11    28    29    1
    12    17    18   am
    13    18     1    1
    14     1     2   ar
    15     2     3   ar
    16     3     6    1
    17     6     7   ar
    18     7     8   ar
    19     8     9   ar
    20     9    10   ar
    21    10    11   ar
    22    11    12   ar
    23    12    13   ar
    24    13    14   ar
    25     3     4   ar
    26     4     5   ar
    27    26    21   ar
    28     5     1   ar
    29    29    24    1
    30    14     6   ar
    31    14     9    1
    32    18    19    1
    33    10    15    1
@<TRIPOS>MOLECULE
*****
 29 33 0 0 0
SMALL
GASTEIGER

@<TRIPOS>ATOM
      1 C          62.0803   87.9255   11.4126 C.ar    1  UNL1        0.1655
      2 N          62.8994   86.7160   11.7536 N.ar    1  UNL1       -0.2239
      3 C          62.3516   85.5526   10.9814 C.ar    1  UNL1        0.0913
      4 C          61.1941   86.0431   10.1631 C.ar    1  UNL1        0.0573
      5 S          61.0265   87.5096   10.4297 S.2     1  UNL1       -0.0508
      6 C          62.8704   84.1457   11.0205 C.ar    1  UNL1        0.0403
      7 C          63.6050   83.4459    9.9156 C.ar    1  UNL1        0.1021
      8 N          63.9342   82.0592   10.3836 N.ar    1  UNL1       -0.2269
      9 C          63.4030   81.9021   11.7775 C.ar    1  UNL1        0.1406
     10 N          63.4331   80.7514   12.7393 N.ar    1  UNL1       -0.3374
     11 C          62.8057   80.8902   14.0947 C.ar    1  UNL1        0.0735
     12 C          62.1483   82.1797   14.4883 C.ar    1  UNL1        0.0186
     13 C          62.1182   83.3304   13.5266 C.ar    1  UNL1        0.0046
     14 C          62.7455   83.1916   12.1712 C.ar    1  UNL1        0.0370
     15 H          63.8646   79.9051   12.4809 H       1  UNL1        0.1674
     16 O          63.9219   88.3676   13.7392 O.2     1  UNL1       -0.2744
     17 C          63.2010   89.5293   13.1221 C.2     1  UNL1        0.2320
     18 N          62.2802   89.3082   11.9588 N.am    1  UNL1       -0.2639
     19 H          61.8070   90.0706   11.5537 H       1  UNL1        0.1567
     20 C          63.4008   90.9119   13.6683 C.3     1  UNL1        0.1118
     21 C          64.7857   91.4726   13.8021 C.ar    1  UNL1       -0.0099
     22 C          65.4948   92.0154   12.5970 C.ar    1  UNL1       -0.0005
     23 C          66.8797   92.5760   12.7309 C.ar    1  UNL1        0.0399
     24 C          67.5554   92.5937   14.0699 C.ar    1  UNL1        0.1764
     25 C          66.8463   92.0509   15.2751 C.ar    1  UNL1        0.1761
     26 C          65.4614   91.4903   15.1413 C.ar    1  UNL1        0.0364
     27 O          67.7586   92.2007   16.4563 O.3     1  UNL1       -0.4346
     28 C          69.0315   92.8361   15.9811 C.3     1  UNL1        0.4294
     29 O          68.9060   93.0790   14.5063 O.3     1  UNL1       -0.4346
@<TRIPOS>BOND
     1    16    17    2
     2    17    20    1
     3    20    21    1
     4    21    22   ar
     5    22    23   ar
     6    23    24   ar
     7    24    25   ar
     8    25    26   ar
     9    25    27    1
    10    27    28    1
    11    28    29    1
    12    17    18   am
    13    18     1    1
    14     1     2   ar
    15     2     3   ar
    16     3     6    1
    17     6     7   ar
    18     7     8   ar
    19     8     9   ar
    20     9    10   ar
    21    10    11   ar
    22    11    12   ar
    23    12    13   ar
    24    13    14   ar
    25     3     4   ar
    26     4     5   ar
    27    26    21   ar
    28     5     1   ar
    29    29    24    1
    30    14     6   ar
    31    14     9    1
    32    18    19    1
    33    10    15    1
@<TRIPOS>MOLECULE
*****
 29 33 0 0 0
SMALL
GASTEIGER

@<TRIPOS>ATOM
      1 C          63.9522   86.9718   14.8089 C.ar    1  UNL1        0.1655
      2 N          63.6696   85.8717   13.8292 N.ar    1  UNL1       -0.2239
      3 C          63.2291   84.6642   14.6025 C.ar    1  UNL1        0.0913
      4 C          63.2395   85.0182   16.0601 C.ar    1  UNL1        0.0573
      5 S          63.6864   86.4443   16.1876 S.2     1  UNL1       -0.0508
      6 C          62.8456   83.3360   14.0205 C.ar    1  UNL1        0.0403
      7 C          62.0280   82.2783   14.7008 C.ar    1  UNL1        0.1021
      8 N          61.8894   81.1209   13.7567 N.ar    1  UNL1       -0.2269
      9 C          62.6213   81.4633   12.4929 C.ar    1  UNL1        0.1406
     10 N          62.8259   80.7054   11.2148 N.ar    1  UNL1       -0.3374
     11 C          63.6215   81.3165   10.0997 C.ar    1  UNL1        0.0735
     12 C          64.2125   82.6855   10.2627 C.ar    1  UNL1        0.0186
     13 C          64.0078   83.4435   11.5408 C.ar    1  UNL1        0.0046
     14 C          63.2122   82.8324   12.6559 C.ar    1  UNL1        0.0370
     15 H          62.4381   79.8069   11.1078 H       1  UNL1        0.1674
     16 O          62.6664   88.4774   12.5551 O.2     1  UNL1       -0.2744
     17 C          63.7758   89.1092   13.3424 C.2     1  UNL1        0.2320
     18 N          64.4187   88.3564   14.4693 N.am    1  UNL1       -0.2639
     19 H          65.1469   88.7711   14.9861 H       1  UNL1        0.1567
     20 C          64.2423   90.4938   13.0029 C.3     1  UNL1        0.1118
     21 C          65.1007   91.2543   13.9699 C.ar    1  UNL1       -0.0099
     22 C          64.5717   91.6014   15.3298 C.ar    1  UNL1       -0.0005
     23 C          65.4300   92.3618   16.2968 C.ar    1  UNL1        0.0399
     24 C          66.8173   92.7752   15.9038 C.ar    1  UNL1        0.1764
     25 C          67.3463   92.4280   14.5438 C.ar    1  UNL1        0.1761
     26 C          66.4880   91.6676   13.5768 C.ar    1  UNL1        0.0364
     27 O          68.7429   92.9653   14.4386 O.3     1  UNL1       -0.4346
     28 C          69.0769   93.6444   15.7337 C.3     1  UNL1        0.4294
     29 O          67.8869   93.5269   16.6392 O.3     1  UNL1       -0.4346
@<TRIPOS>BOND
     1    16    17    2
     2    17    20    1
     3    20    21    1
     4    21    22   ar
     5    22    23   ar
     6    23    24   ar
     7    24    25   ar
     8    25    26   ar
     9    25    27    1
    10    27    28    1
    11    28    29    1
    12    17    18   am
    13    18     1    1
    14     1     2   ar
    15     2     3   ar
    16     3     6    1
    17     6     7   ar
    18     7     8   ar
    19     8     9   ar
    20     9    10   ar
    21    10    11   ar
    22    11    12   ar
    23    12    13   ar
    24    13    14   ar
    25     3     4   ar
    26     4     5   ar
    27    26    21   ar
    28     5     1   ar
    29    29    24    1
    30    14     6   ar
    31    14     9    1
    32    18    19    1
    33    10    15    1
@<TRIPOS>MOLECULE
*****
 29 33 0 0 0
SMALL
GASTEIGER

@<TRIPOS>ATOM
      1 C          63.5814   88.5667   15.8075 C.ar    1  UNL1        0.1655
      2 N          64.6517   89.0468   14.8727 N.ar    1  UNL1       -0.2239
      3 C          64.8202   90.5228   15.0799 C.ar    1  UNL1        0.0913
      4 C          63.8540   90.9549   16.1428 C.ar    1  UNL1        0.0573
      5 S          63.0884   89.7460   16.5924 S.2     1  UNL1       -0.0508
      6 C          65.7855   91.4108   14.3521 C.ar    1  UNL1        0.0403
      7 C          67.0740   91.9488   14.9003 C.ar    1  UNL1        0.1021
      8 N          67.7166   92.7872   13.8352 N.ar    1  UNL1       -0.2269
      9 C          66.8252   92.7673   12.6290 C.ar    1  UNL1        0.1406
     10 N          66.9462   93.4140   11.2809 N.ar    1  UNL1       -0.3374
     11 C          65.8737   93.2100   10.2523 C.ar    1  UNL1        0.0735
     12 C          64.6802   92.3593   10.5717 C.ar    1  UNL1        0.0186
     13 C          64.5592   91.7126   11.9197 C.ar    1  UNL1        0.0046
     14 C          65.6318   91.9167   12.9484 C.ar    1  UNL1        0.0370
     15 H          67.7295   93.9723   11.0713 H       1  UNL1        0.1674
     16 O          65.4112   86.2780   15.1644 O.2     1  UNL1       -0.2744
     17 C          64.0052   86.0108   15.6134 C.2     1  UNL1        0.2320
     18 N          63.0902   87.1551   15.9350 N.am    1  UNL1       -0.2639
     19 H          62.1674   86.9797   16.2297 H       1  UNL1        0.1567
     20 C          63.5140   84.5992   15.7409 C.3     1  UNL1        0.1118
     21 C          63.3594   83.7455   14.5171 C.ar    1  UNL1       -0.0099
     22 C          62.3486   82.6376   14.4984 C.ar    1  UNL1       -0.0005
     23 C          62.1939   81.7839   13.2748 C.ar    1  UNL1        0.0399
     24 C          63.0503   82.0382   12.0698 C.ar    1  UNL1        0.1764
     25 C          64.0612   83.1462   12.0885 C.ar    1  UNL1        0.1761
     26 C          64.2159   83.9999   13.3121 C.ar    1  UNL1        0.0364
     27 O          64.7590   83.1595   10.7607 O.3     1  UNL1       -0.4346
     28 C          64.1793   82.0598    9.9214 C.3     1  UNL1        0.4294
     29 O          63.1232   81.3667   10.7305 O.3     1  UNL1       -0.4346
@<TRIPOS>BOND
     1    16    17    2
     2    17    20    1
     3    20    21    1
     4    21    22   ar
     5    22    23   ar
     6    23    24   ar
     7    24    25   ar
     8    25    26   ar
     9    25    27    1
    10    27    28    1
    11    28    29    1
    12    17    18   am
    13    18     1    1
    14     1     2   ar
    15     2     3   ar
    16     3     6    1
    17     6     7   ar
    18     7     8   ar
    19     8     9   ar
    20     9    10   ar
    21    10    11   ar
    22    11    12   ar
    23    12    13   ar
    24    13    14   ar
    25     3     4   ar
    26     4     5   ar
    27    26    21   ar
    28     5     1   ar
    29    29    24    1
    30    14     6   ar
    31    14     9    1
    32    18    19    1
    33    10    15    1
@<TRIPOS>MOLECULE
*****
 29 33 0 0 0
SMALL
GASTEIGER

@<TRIPOS>ATOM
      1 C          63.1595   88.8053   12.3502 C.ar    1  UNL1        0.1655
      2 N          63.8324   89.1197   13.6534 N.ar    1  UNL1       -0.2239
      3 C          63.9895   90.6085   13.7466 C.ar    1  UNL1        0.0913
      4 C          63.4137   91.2142   12.5010 C.ar    1  UNL1        0.0573
      5 S          62.9008   90.0997   11.6380 S.2     1  UNL1       -0.0508
      6 C          64.6129   91.3598   14.8854 C.ar    1  UNL1        0.0403
      7 C          63.9390   91.7245   16.1750 C.ar    1  UNL1        0.1021
      8 N          64.9293   92.4684   17.0213 N.ar    1  UNL1       -0.2269
      9 C          66.2152   92.5633   16.2547 C.ar    1  UNL1        0.1406
     10 N          67.5388   93.1851   16.5882 N.ar    1  UNL1       -0.3374
     11 C          68.6670   93.1218   15.6017 C.ar    1  UNL1        0.0735
     12 C          68.4715   92.4366   14.2817 C.ar    1  UNL1        0.0186
     13 C          67.1478   91.8148   13.9482 C.ar    1  UNL1        0.0046
     14 C          66.0197   91.8781   14.9347 C.ar    1  UNL1        0.0370
     15 H          67.6671   93.6348   17.4546 H       1  UNL1        0.1674
     16 O          62.0065   88.4677    9.6013 O.2     1  UNL1       -0.2744
     17 C          62.2307   87.2678   10.4731 C.2     1  UNL1        0.2320
     18 N          62.8072   87.4366   11.8475 N.am    1  UNL1       -0.2639
     19 H          62.9544   86.6491   12.4197 H       1  UNL1        0.1567
     20 C          61.8785   85.8991    9.9704 C.3     1  UNL1        0.1118
     21 C          62.5381   84.6895   10.5636 C.ar    1  UNL1       -0.0099
     22 C          63.5600   83.9286    9.7722 C.ar    1  UNL1       -0.0005
     23 C          64.2196   82.7190   10.3654 C.ar    1  UNL1        0.0399
     24 C          63.8571   82.2704   11.7500 C.ar    1  UNL1        0.1764
     25 C          62.8351   83.0313   12.5415 C.ar    1  UNL1        0.1761
     26 C          62.1755   84.2409   11.9484 C.ar    1  UNL1        0.0364
     27 O          62.6824   82.3559   13.8721 O.3     1  UNL1       -0.4346
     28 C          63.6100   81.1776   13.9030 C.3     1  UNL1        0.4294
     29 O          64.3361   81.1247   12.5915 O.3     1  UNL1       -0.4346
@<TRIPOS>BOND
     1    16    17    2
     2    17    20    1
     3    20    21    1
     4    21    22   ar
     5    22    23   ar
     6    23    24   ar
     7    24    25   ar
     8    25    26   ar
     9    25    27    1
    10    27    28    1
    11    28    29    1
    12    17    18   am
    13    18     1    1
    14     1     2   ar
    15     2     3   ar
    16     3     6    1
    17     6     7   ar
    18     7     8   ar
    19     8     9   ar
    20     9    10   ar
    21    10    11   ar
    22    11    12   ar
    23    12    13   ar
    24    13    14   ar
    25     3     4   ar
    26     4     5   ar
    27    26    21   ar
    28     5     1   ar
    29    29    24    1
    30    14     6   ar
    31    14     9    1
    32    18    19    1
    33    10    15    1
@<TRIPOS>MOLECULE
*****
 29 33 0 0 0
SMALL
GASTEIGER

@<TRIPOS>ATOM
      1 C          61.9479   89.6240   11.7612 C.ar    1  UNL1        0.1655
      2 N          61.9331   88.8532   10.4744 N.ar    1  UNL1       -0.2239
      3 C          60.5668   88.2574   10.3067 C.ar    1  UNL1        0.0913
      4 C          59.7372   88.6599   11.4898 C.ar    1  UNL1        0.0573
      5 S          60.5908   89.5045   12.3887 S.2     1  UNL1       -0.0508
      6 C          60.1102   87.4082    9.1576 C.ar    1  UNL1        0.0403
      7 C          58.7358   87.4028    8.5569 C.ar    1  UNL1        0.1021
      8 N          58.7240   86.4065    7.4355 N.ar    1  UNL1       -0.2269
      9 C          60.0911   85.7962    7.3433 C.ar    1  UNL1        0.1406
     10 N          60.6666   84.7568    6.4277 N.ar    1  UNL1       -0.3374
     11 C          62.0987   84.3364    6.5764 C.ar    1  UNL1        0.0735
     12 C          62.9555   84.9554    7.6407 C.ar    1  UNL1        0.0186
     13 C          62.3801   85.9949    8.5563 C.ar    1  UNL1        0.0046
     14 C          60.9479   86.4153    8.4076 C.ar    1  UNL1        0.0370
     15 H          60.1042   84.3505    5.7291 H       1  UNL1        0.1674
     16 O          63.4896   91.5132   10.0136 O.2     1  UNL1       -0.2744
     17 C          63.8859   91.3259   11.4482 C.2     1  UNL1        0.2320
     18 N          63.1150   90.3812   12.3219 N.am    1  UNL1       -0.2639
     19 H          63.3751   90.2582   13.2635 H       1  UNL1        0.1567
     20 C          65.0530   92.0831   12.0089 C.3     1  UNL1        0.1118
     21 C          65.9054   92.9241   11.1054 C.ar    1  UNL1       -0.0099
     22 C          67.2027   92.3837   10.5812 C.ar    1  UNL1       -0.0005
     23 C          68.0551   93.2246    9.6777 C.ar    1  UNL1        0.0399
     24 C          67.6101   94.6059    9.2984 C.ar    1  UNL1        0.1764
     25 C          66.3127   95.1464    9.8226 C.ar    1  UNL1        0.1761
     26 C          65.4604   94.3055   10.7261 C.ar    1  UNL1        0.0364
     27 O          66.1355   96.5336    9.2803 O.3     1  UNL1       -0.4346
     28 C          67.3233   96.8506    8.4209 C.3     1  UNL1        0.4294
     29 O          68.2347   95.6592    8.4321 O.3     1  UNL1       -0.4346
@<TRIPOS>BOND
     1    16    17    2
     2    17    20    1
     3    20    21    1
     4    21    22   ar
     5    22    23   ar
     6    23    24   ar
     7    24    25   ar
     8    25    26   ar
     9    25    27    1
    10    27    28    1
    11    28    29    1
    12    17    18   am
    13    18     1    1
    14     1     2   ar
    15     2     3   ar
    16     3     6    1
    17     6     7   ar
    18     7     8   ar
    19     8     9   ar
    20     9    10   ar
    21    10    11   ar
    22    11    12   ar
    23    12    13   ar
    24    13    14   ar
    25     3     4   ar
    26     4     5   ar
    27    26    21   ar
    28     5     1   ar
    29    29    24    1
    30    14     6   ar
    31    14     9    1
    32    18    19    1
    33    10    15    1
@<TRIPOS>MOLECULE
*****
 29 33 0 0 0
SMALL
GASTEIGER

@<TRIPOS>ATOM
      1 C          62.7592   87.4936   11.4692 C.ar    1  UNL1        0.1655
      2 N          63.0801   86.6196   12.6453 N.ar    1  UNL1       -0.2239
      3 C          62.4094   85.2945   12.4347 C.ar    1  UNL1        0.0913
      4 C          61.6740   85.3496   11.1285 C.ar    1  UNL1        0.0573
      5 S          61.8902   86.7087   10.5319 S.2     1  UNL1       -0.0508
      6 C          62.4644   84.1205   13.3667 C.ar    1  UNL1        0.0403
      7 C          62.4174   84.1811   14.8648 C.ar    1  UNL1        0.1021
      8 N          62.5001   82.7777   15.3882 N.ar    1  UNL1       -0.2269
      9 C          62.5981   81.8499   14.2137 C.ar    1  UNL1        0.1406
     10 N          62.7047   80.3566   14.1204 N.ar    1  UNL1       -0.3374
     11 C          62.7891   79.6932   12.7778 C.ar    1  UNL1        0.0735
     12 C          62.7671   80.5230   11.5284 C.ar    1  UNL1        0.0186
     13 C          62.6606   82.0163   11.6217 C.ar    1  UNL1        0.0046
     14 C          62.5761   82.6798   12.9643 C.ar    1  UNL1        0.0370
     15 H          62.7191   79.8120   14.9404 H       1  UNL1        0.1674
     16 O          61.6079   89.7079   13.1340 O.2     1  UNL1       -0.2744
     17 C          62.6498   90.0119   12.0986 C.2     1  UNL1        0.2320
     18 N          63.2254   88.9047   11.2662 N.am    1  UNL1       -0.2639
     19 H          63.9093   89.1043   10.5867 H       1  UNL1        0.1567
     20 C          63.1161   91.4230   11.8956 C.3     1  UNL1        0.1118
     21 C          64.4723   91.8420   12.3809 C.ar    1  UNL1       -0.0099
     22 C          65.3951   92.5956   11.4697 C.ar    1  UNL1       -0.0005
     23 C          66.7512   93.0145   11.9549 C.ar    1  UNL1        0.0399
     24 C          67.1844   92.6798   13.3514 C.ar    1  UNL1        0.1764
     25 C          66.2616   91.9262   14.2627 C.ar    1  UNL1        0.1761
     26 C          64.9055   91.5073   13.7775 C.ar    1  UNL1        0.0364
     27 O          66.9589   91.7395   15.5776 O.3     1  UNL1       -0.4346
     28 C          68.3127   92.3778   15.4790 C.3     1  UNL1        0.4294
     29 O          68.4521   92.9589   14.1031 O.3     1  UNL1       -0.4346
@<TRIPOS>BOND
     1    16    17    2
     2    17    20    1
     3    20    21    1
     4    21    22   ar
     5    22    23   ar
     6    23    24   ar
     7    24    25   ar
     8    25    26   ar
     9    25    27    1
    10    27    28    1
    11    28    29    1
    12    17    18   am
    13    18     1    1
    14     1     2   ar
    15     2     3   ar
    16     3     6    1
    17     6     7   ar
    18     7     8   ar
    19     8     9   ar
    20     9    10   ar
    21    10    11   ar
    22    11    12   ar
    23    12    13   ar
    24    13    14   ar
    25     3     4   ar
    26     4     5   ar
    27    26    21   ar
    28     5     1   ar
    29    29    24    1
    30    14     6   ar
    31    14     9    1
    32    18    19    1
    33    10    15    1
@<TRIPOS>MOLECULE
*****
 29 33 0 0 0
SMALL
GASTEIGER

@<TRIPOS>ATOM
      1 C          64.2471   87.0627   14.8213 C.ar    1  UNL1        0.1655
      2 N          64.2849   86.2311   13.5735 N.ar    1  UNL1       -0.2239
      3 C          63.9743   84.8133   13.9518 C.ar    1  UNL1        0.0913
      4 C          63.7446   84.7686   15.4334 C.ar    1  UNL1        0.0573
      5 S          63.9132   86.1588   15.9707 S.2     1  UNL1       -0.0508
      6 C          63.9056   83.6451   13.0133 C.ar    1  UNL1        0.0403
      7 C          64.6049   83.5343   11.6909 C.ar    1  UNL1        0.1021
      8 N          64.2570   82.2034   11.0927 N.ar    1  UNL1       -0.2269
      9 C          63.3427   81.4918   12.0454 C.ar    1  UNL1        0.1406
     10 N          62.6798   80.1476   11.9854 N.ar    1  UNL1       -0.3374
     11 C          61.7998   79.6943   13.1124 C.ar    1  UNL1        0.0735
     12 C          61.5826   80.5854   14.2994 C.ar    1  UNL1        0.0186
     13 C          62.2455   81.9296   14.3594 C.ar    1  UNL1        0.0046
     14 C          63.1255   82.3828   13.2324 C.ar    1  UNL1        0.0370
     15 H          62.8224   79.5628   11.2064 H       1  UNL1        0.1674
     16 O          62.3800   88.8170   16.3822 O.2     1  UNL1       -0.2744
     17 C          63.5655   89.4162   15.6853 C.2     1  UNL1        0.2320
     18 N          64.4990   88.5391   14.9049 N.am    1  UNL1       -0.2639
     19 H          65.2771   88.9323   14.4475 H       1  UNL1        0.1567
     20 C          63.8174   90.8925   15.7689 C.3     1  UNL1        0.1118
     21 C          64.7196   91.5571   14.7716 C.ar    1  UNL1       -0.0099
     22 C          65.9643   92.2546   15.2342 C.ar    1  UNL1       -0.0005
     23 C          66.8664   92.9191   14.2369 C.ar    1  UNL1        0.0399
     24 C          66.5238   92.8861   12.7770 C.ar    1  UNL1        0.1764
     25 C          65.2790   92.1887   12.3143 C.ar    1  UNL1        0.1761
     26 C          64.3769   91.5241   13.3115 C.ar    1  UNL1        0.0364
     27 O          65.2015   92.3199   10.8220 O.3     1  UNL1       -0.4346
     28 C          66.3984   93.0985   10.3625 C.3     1  UNL1        0.4294
     29 O          67.2156   93.4485   11.5707 O.3     1  UNL1       -0.4346
@<TRIPOS>BOND
     1    16    17    2
     2    17    20    1
     3    20    21    1
     4    21    22   ar
     5    22    23   ar
     6    23    24   ar
     7    24    25   ar
     8    25    26   ar
     9    25    27    1
    10    27    28    1
    11    28    29    1
    12    17    18   am
    13    18     1    1
    14     1     2   ar
    15     2     3   ar
    16     3     6    1
    17     6     7   ar
    18     7     8   ar
    19     8     9   ar
    20     9    10   ar
    21    10    11   ar
    22    11    12   ar
    23    12    13   ar
    24    13    14   ar
    25     3     4   ar
    26     4     5   ar
    27    26    21   ar
    28     5     1   ar
    29    29    24    1
    30    14     6   ar
    31    14     9    1
    32    18    19    1
    33    10    15    1
