@<TRIPOS>MOLECULE
*****
 34 39 0 0 0
SMALL
GASTEIGER

@<TRIPOS>ATOM
      1 C          63.4049   87.0798   15.3066 C.ar    1  UNL1        0.1074
      2 C          62.9818   87.4118   16.7068 C.ar    1  UNL1        0.0588
      3 S          63.2833   88.8607   16.9509 S.2     1  UNL1       -0.0508
      4 C          63.8929   89.4242   15.7016 C.ar    1  UNL1        0.1646
      5 N          63.9680   88.3236   14.6853 N.ar    1  UNL1       -0.2224
      6 C          62.9730   84.3109   12.4965 C.ar    1  UNL1        0.2416
      7 N          63.0920   85.6514   13.1591 N.ar    1  UNL1       -0.2089
      8 C          63.2859   85.7394   14.6439 C.ar    1  UNL1        0.1026
      9 C          63.3608   84.4870   15.4661 C.ar    1  UNL1        0.0224
     10 C          63.2418   83.1466   14.8034 C.ar    1  UNL1        0.0239
     11 C          63.0478   83.0586   13.3186 C.ar    1  UNL1        0.1189
     12 N          62.9288   81.7181   12.6560 N.ar    1  UNL1       -0.2826
     13 C          62.6049   80.4225   13.3391 C.ar    1  UNL1        0.1826
     14 N          62.5887   79.3416   12.2993 N.ar    1  UNL1       -0.2280
     15 C          62.9026   79.9692   10.9734 C.ar    1  UNL1        0.0786
     16 C          62.9908   79.2536    9.6581 C.3     1  UNL1        0.0538
     17 C          63.1128   81.4380   11.1939 C.ar    1  UNL1        0.0963
     18 C          62.3991   85.4461   10.2311 C.3     1  UNL1        0.2543
     19 O          62.7790   84.2229   11.0117 O.3     1  UNL1       -0.4551
     20 N          64.3475   90.8400   15.5033 N.pl3   1  UNL1       -0.2786
     21 H          64.3787   91.4587   16.2684 H       1  UNL1        0.1555
     22 C          64.7545   91.3129   14.1392 C.ar    1  UNL1        0.1274
     23 C          63.9528   91.1669   12.8799 C.ar    1  UNL1        0.0244
     24 C          64.7375   91.7785   11.7573 C.ar    1  UNL1        0.0773
     25 N          66.0242   92.3026   12.3230 N.ar    1  UNL1       -0.1730
     26 N          66.0347   92.0148   13.7950 N.ar    1  UNL1       -0.2402
     27 C          64.1791   91.7793   10.3652 C.3     1  UNL1        0.0474
     28 C          62.8360   91.1685   10.0956 C.3     1  UNL1        0.0067
     29 C          62.0512   90.5568   11.2181 C.3     1  UNL1        0.0052
     30 C          62.6097   90.5560   12.6102 C.3     1  UNL1        0.0305
     31 C          67.1326   92.3670   14.7545 C.3     1  UNL1        0.1065
     32 C          68.6290   92.2631   14.7386 C.3     1  UNL1        0.0245
     33 C          68.6853   92.8651   16.1113 C.3     1  UNL1        0.0040
     34 C          67.1890   92.9691   16.1272 C.3     1  UNL1        0.0245
@<TRIPOS>BOND
     1    18    19    1
     2    19     6    1
     3     6     7   ar
     4     7     8   ar
     5     8     1    1
     6     1     2   ar
     7     2     3   ar
     8     3     4   ar
     9     4    20    1
    10    20    22    1
    11    22    23   ar
    12    23    24   ar
    13    24    25   ar
    14    25    26   ar
    15    26    31    1
    16    31    32    1
    17    32    33    1
    18    33    34    1
    19    24    27    1
    20    27    28    1
    21    28    29    1
    22    29    30    1
    23     4     5   ar
    24     8     9   ar
    25     9    10   ar
    26    10    11   ar
    27    11    12    1
    28    12    13   ar
    29    13    14   ar
    30    14    15   ar
    31    15    16    1
    32    15    17   ar
    33    11     6   ar
    34    17    12   ar
    35     5     1   ar
    36    26    22   ar
    37    34    31    1
    38    30    23    1
    39    20    21    1
@<TRIPOS>MOLECULE
*****
 34 39 0 0 0
SMALL
GASTEIGER

@<TRIPOS>ATOM
      1 C          62.6188   89.0122   11.2525 C.ar    1  UNL1        0.1074
      2 C          61.4115   89.8479   10.9460 C.ar    1  UNL1        0.0588
      3 S          61.8833   91.2139   10.5439 S.2     1  UNL1       -0.0508
      4 C          63.3822   91.2223   10.6019 C.ar    1  UNL1        0.1646
      5 N          63.8367   89.8615   11.0398 N.ar    1  UNL1       -0.2224
      6 C          63.3625   85.7327   13.3601 C.ar    1  UNL1        0.2416
      7 N          63.3717   87.1662   12.9186 N.ar    1  UNL1       -0.2089
      8 C          62.6097   87.5787   11.6940 C.ar    1  UNL1        0.1026
      9 C          61.8387   86.5576   10.9111 C.ar    1  UNL1        0.0224
     10 C          61.8297   85.1240   11.3527 C.ar    1  UNL1        0.0239
     11 C          62.5916   84.7117   12.5773 C.ar    1  UNL1        0.1189
     12 N          62.5825   83.2782   13.0188 N.ar    1  UNL1       -0.2826
     13 C          62.5330   82.7928   14.4374 C.ar    1  UNL1        0.1826
     14 N          62.5413   81.2931   14.4147 N.ar    1  UNL1       -0.2280
     15 C          62.5958   80.8514   12.9821 C.ar    1  UNL1        0.0786
     16 C          62.6206   79.4321   12.4974 C.3     1  UNL1        0.0538
     17 C          62.6213   82.0784   12.1195 C.ar    1  UNL1        0.0963
     18 C          63.7385   85.8662   15.9274 C.3     1  UNL1        0.2543
     19 O          64.1245   85.3203   14.5846 O.3     1  UNL1       -0.4551
     20 N          64.2706   92.3870   10.2788 N.pl3   1  UNL1       -0.2786
     21 H          64.2553   92.7825    9.3773 H       1  UNL1        0.1555
     22 C          65.1822   92.9490   11.3291 C.ar    1  UNL1        0.1274
     23 C          65.2822   92.4823   12.7511 C.ar    1  UNL1        0.0244
     24 C          66.3157   93.3212   13.4426 C.ar    1  UNL1        0.0773
     25 N          66.8543   94.3063   12.4480 N.ar    1  UNL1       -0.1730
     26 N          66.1538   94.0763   11.1417 N.ar    1  UNL1       -0.2402
     27 C          66.6327   93.0797   14.8887 C.3     1  UNL1        0.0474
     28 C          65.9162   91.9993   15.6432 C.3     1  UNL1        0.0067
     29 C          64.8828   91.1603   14.9517 C.3     1  UNL1        0.0052
     30 C          64.5658   91.4019   13.5056 C.3     1  UNL1        0.0305
     31 C          66.3844   94.8395    9.8712 C.3     1  UNL1        0.1065
     32 C          67.2062   94.6192    8.6357 C.3     1  UNL1        0.0245
     33 C          66.7106   95.9189    8.0744 C.3     1  UNL1        0.0040
     34 C          65.8888   96.1393    9.3097 C.3     1  UNL1        0.0245
@<TRIPOS>BOND
     1    18    19    1
     2    19     6    1
     3     6     7   ar
     4     7     8   ar
     5     8     1    1
     6     1     2   ar
     7     2     3   ar
     8     3     4   ar
     9     4    20    1
    10    20    22    1
    11    22    23   ar
    12    23    24   ar
    13    24    25   ar
    14    25    26   ar
    15    26    31    1
    16    31    32    1
    17    32    33    1
    18    33    34    1
    19    24    27    1
    20    27    28    1
    21    28    29    1
    22    29    30    1
    23     4     5   ar
    24     8     9   ar
    25     9    10   ar
    26    10    11   ar
    27    11    12    1
    28    12    13   ar
    29    13    14   ar
    30    14    15   ar
    31    15    16    1
    32    15    17   ar
    33    11     6   ar
    34    17    12   ar
    35     5     1   ar
    36    26    22   ar
    37    34    31    1
    38    30    23    1
    39    20    21    1
@<TRIPOS>MOLECULE
*****
 34 39 0 0 0
SMALL
GASTEIGER

@<TRIPOS>ATOM
      1 C          63.3151   87.2738   15.1994 C.ar    1  UNL1        0.1074
      2 C          63.1475   87.6055   16.6526 C.ar    1  UNL1        0.0588
      3 S          63.3307   89.0855   16.8143 S.2     1  UNL1       -0.0508
      4 C          63.6113   89.6684   15.4611 C.ar    1  UNL1        0.1646
      5 N          63.6017   88.5487   14.4630 N.ar    1  UNL1       -0.2224
      6 C          62.8308   84.3920   12.5140 C.ar    1  UNL1        0.2416
      7 N          62.9321   85.7588   13.1237 N.ar    1  UNL1       -0.2089
      8 C          63.2137   85.9071   14.5896 C.ar    1  UNL1        0.1026
      9 C          63.3940   84.6886   15.4457 C.ar    1  UNL1        0.0224
     10 C          63.2926   83.3219   14.8359 C.ar    1  UNL1        0.0239
     11 C          63.0110   83.1737   13.3700 C.ar    1  UNL1        0.1189
     12 N          62.9097   81.8070   12.7603 N.ar    1  UNL1       -0.2826
     13 C          62.6322   80.5306   13.4980 C.ar    1  UNL1        0.1826
     14 N          62.6191   79.4115   12.4995 N.ar    1  UNL1       -0.2280
     15 C          62.8884   79.9960   11.1444 C.ar    1  UNL1        0.0786
     16 C          62.9647   79.2339    9.8548 C.3     1  UNL1        0.0538
     17 C          63.0680   81.4765   11.3057 C.ar    1  UNL1        0.0963
     18 C          62.3655   85.4622   10.1927 C.3     1  UNL1        0.2543
     19 O          62.5492   84.2438   11.0482 O.3     1  UNL1       -0.4551
     20 N          63.8583   91.1168   15.1589 N.pl3   1  UNL1       -0.2786
     21 H          63.2418   91.8034   15.5022 H       1  UNL1        0.1555
     22 C          65.0446   91.5191   14.3337 C.ar    1  UNL1        0.1274
     23 C          66.3874   91.9295   14.8615 C.ar    1  UNL1        0.0244
     24 C          67.2690   92.2457   13.6898 C.ar    1  UNL1        0.0773
     25 N          66.4711   92.0308   12.4380 N.ar    1  UNL1       -0.1730
     26 N          65.0963   91.5817   12.8359 N.ar    1  UNL1       -0.2402
     27 C          68.6844   92.6885   13.9142 C.3     1  UNL1        0.0474
     28 C          69.2182   92.8151   15.3103 C.3     1  UNL1        0.0067
     29 C          68.3366   92.4989   16.4819 C.3     1  UNL1        0.0052
     30 C          66.9212   92.0561   16.2575 C.3     1  UNL1        0.0305
     31 C          63.9709   91.2530   11.9003 C.3     1  UNL1        0.1065
     32 C          63.6529   91.5731   10.4697 C.3     1  UNL1        0.0245
     33 C          62.3793   90.7880   10.5772 C.3     1  UNL1        0.0040
     34 C          62.6972   90.4679   12.0077 C.3     1  UNL1        0.0245
@<TRIPOS>BOND
     1    18    19    1
     2    19     6    1
     3     6     7   ar
     4     7     8   ar
     5     8     1    1
     6     1     2   ar
     7     2     3   ar
     8     3     4   ar
     9     4    20    1
    10    20    22    1
    11    22    23   ar
    12    23    24   ar
    13    24    25   ar
    14    25    26   ar
    15    26    31    1
    16    31    32    1
    17    32    33    1
    18    33    34    1
    19    24    27    1
    20    27    28    1
    21    28    29    1
    22    29    30    1
    23     4     5   ar
    24     8     9   ar
    25     9    10   ar
    26    10    11   ar
    27    11    12    1
    28    12    13   ar
    29    13    14   ar
    30    14    15   ar
    31    15    16    1
    32    15    17   ar
    33    11     6   ar
    34    17    12   ar
    35     5     1   ar
    36    26    22   ar
    37    34    31    1
    38    30    23    1
    39    20    21    1
@<TRIPOS>MOLECULE
*****
 34 39 0 0 0
SMALL
GASTEIGER

@<TRIPOS>ATOM
      1 C          62.4974   89.1701   11.8475 C.ar    1  UNL1        0.1074
      2 C          61.1695   89.6802   11.3719 C.ar    1  UNL1        0.0588
      3 S          60.4786   88.5655   10.6438 S.2     1  UNL1       -0.0508
      4 C          61.3796   87.3666   10.6693 C.ar    1  UNL1        0.1646
      5 N          62.6274   87.7403   11.4133 N.ar    1  UNL1       -0.2224
      6 C          65.0728   92.0214   12.8415 C.ar    1  UNL1        0.2416
      7 N          64.0536   91.2390   12.0674 N.ar    1  UNL1       -0.2089
      8 C          63.5166   89.9526   12.6215 C.ar    1  UNL1        0.1026
      9 C          63.9989   89.4487   13.9495 C.ar    1  UNL1        0.0224
     10 C          65.0181   90.2312   14.7234 C.ar    1  UNL1        0.0239
     11 C          65.5550   91.5176   14.1694 C.ar    1  UNL1        0.1189
     12 N          66.5742   92.3000   14.9433 N.ar    1  UNL1       -0.2826
     13 C          66.3690   92.9235   16.2922 C.ar    1  UNL1        0.1826
     14 N          67.6454   93.6052   16.6868 N.ar    1  UNL1       -0.2280
     15 C          68.6397   93.4030   15.5819 C.ar    1  UNL1        0.0786
     16 C          70.0486   93.9172   15.5587 C.3     1  UNL1        0.0538
     17 C          67.9776   92.5964   14.5044 C.ar    1  UNL1        0.0963
     18 C          65.7518   93.4844   10.8046 C.3     1  UNL1        0.2543
     19 O          65.6098   93.3078   12.2874 O.3     1  UNL1       -0.4551
     20 N          61.0847   86.0288   10.0582 N.pl3   1  UNL1       -0.2786
     21 H          60.2156   85.8662    9.6253 H       1  UNL1        0.1555
     22 C          62.1140   84.9388   10.1067 C.ar    1  UNL1        0.1274
     23 C          62.7287   84.3612   11.3471 C.ar    1  UNL1        0.0244
     24 C          63.7040   83.3004   10.9303 C.ar    1  UNL1        0.0773
     25 N          63.6920   83.2225    9.4324 N.ar    1  UNL1       -0.1730
     26 N          62.7094   84.2351    8.9233 N.ar    1  UNL1       -0.2402
     27 C          64.4769   82.5425   11.9686 C.3     1  UNL1        0.0474
     28 C          64.2746   82.8454   13.4237 C.3     1  UNL1        0.0067
     29 C          63.2993   83.9061   13.8405 C.3     1  UNL1        0.0052
     30 C          62.5264   84.6640   12.8021 C.3     1  UNL1        0.0305
     31 C          62.3799   84.4978    7.4837 C.3     1  UNL1        0.1065
     32 C          63.1544   84.4857    6.1991 C.3     1  UNL1        0.0245
     33 C          61.9140   84.8693    5.4479 C.3     1  UNL1        0.0040
     34 C          61.1396   84.8814    6.7324 C.3     1  UNL1        0.0245
@<TRIPOS>BOND
     1    18    19    1
     2    19     6    1
     3     6     7   ar
     4     7     8   ar
     5     8     1    1
     6     1     2   ar
     7     2     3   ar
     8     3     4   ar
     9     4    20    1
    10    20    22    1
    11    22    23   ar
    12    23    24   ar
    13    24    25   ar
    14    25    26   ar
    15    26    31    1
    16    31    32    1
    17    32    33    1
    18    33    34    1
    19    24    27    1
    20    27    28    1
    21    28    29    1
    22    29    30    1
    23     4     5   ar
    24     8     9   ar
    25     9    10   ar
    26    10    11   ar
    27    11    12    1
    28    12    13   ar
    29    13    14   ar
    30    14    15   ar
    31    15    16    1
    32    15    17   ar
    33    11     6   ar
    34    17    12   ar
    35     5     1   ar
    36    26    22   ar
    37    34    31    1
    38    30    23    1
    39    20    21    1
@<TRIPOS>MOLECULE
*****
 34 39 0 0 0
SMALL
GASTEIGER

@<TRIPOS>ATOM
      1 C          62.7521   90.0285   12.5232 C.ar    1  UNL1        0.1074
      2 C          61.4599   90.7014   12.1666 C.ar    1  UNL1        0.0588
      3 S          60.5042   89.6473   11.6914 S.2     1  UNL1       -0.0508
      4 C          61.2058   88.3231   11.7544 C.ar    1  UNL1        0.1646
      5 N          62.5952   88.5586   12.2685 N.ar    1  UNL1       -0.2224
      6 C          65.7703   92.5843   12.8526 C.ar    1  UNL1        0.2416
      7 N          64.5374   91.9064   12.3325 N.ar    1  UNL1       -0.2089
      8 C          63.9850   90.7064   13.0432 C.ar    1  UNL1        0.1026
      9 C          64.6654   90.1845   14.2739 C.ar    1  UNL1        0.0224
     10 C          65.8983   90.8625   14.7939 C.ar    1  UNL1        0.0239
     11 C          66.4507   92.0624   14.0832 C.ar    1  UNL1        0.1189
     12 N          67.6835   92.7404   14.6032 N.ar    1  UNL1       -0.2826
     13 C          69.0990   92.3771   14.2646 C.ar    1  UNL1        0.1826
     14 N          70.0077   93.3128   15.0052 N.ar    1  UNL1       -0.2280
     15 C          69.1538   94.2546   15.8017 C.ar    1  UNL1        0.0786
     16 C          69.6494   95.3566   16.6905 C.3     1  UNL1        0.0538
     17 C          67.7174   93.9008   15.5532 C.ar    1  UNL1        0.0963
     18 C          66.0159   94.0031   10.6900 C.3     1  UNL1        0.2543
     19 O          66.3227   93.7842   12.1419 O.3     1  UNL1       -0.4551
     20 N          60.6209   86.9961   11.3708 N.pl3   1  UNL1       -0.2786
     21 H          59.7604   86.7084   11.7530 H       1  UNL1        0.1555
     22 C          61.3469   86.1076   10.4047 C.ar    1  UNL1        0.1274
     23 C          62.3711   85.0706   10.7592 C.ar    1  UNL1        0.0244
     24 C          62.8334   84.4221    9.4881 C.ar    1  UNL1        0.0773
     25 N          62.0950   85.0583    8.3480 N.ar    1  UNL1       -0.1730
     26 N          61.1762   86.1000    8.9144 N.ar    1  UNL1       -0.2402
     27 C          63.8671   83.3360    9.5331 C.3     1  UNL1        0.0474
     28 C          64.4384   82.8985   10.8492 C.3     1  UNL1        0.0067
     29 C          63.9760   83.5470   12.1203 C.3     1  UNL1        0.0052
     30 C          62.9424   84.6330   12.0753 C.3     1  UNL1        0.0305
     31 C          60.2496   86.9797    8.1286 C.3     1  UNL1        0.1065
     32 C          60.1598   88.4525    7.8584 C.3     1  UNL1        0.0245
     33 C          58.9391   88.2237    7.0173 C.3     1  UNL1        0.0040
     34 C          59.0288   86.7510    7.2874 C.3     1  UNL1        0.0245
@<TRIPOS>BOND
     1    18    19    1
     2    19     6    1
     3     6     7   ar
     4     7     8   ar
     5     8     1    1
     6     1     2   ar
     7     2     3   ar
     8     3     4   ar
     9     4    20    1
    10    20    22    1
    11    22    23   ar
    12    23    24   ar
    13    24    25   ar
    14    25    26   ar
    15    26    31    1
    16    31    32    1
    17    32    33    1
    18    33    34    1
    19    24    27    1
    20    27    28    1
    21    28    29    1
    22    29    30    1
    23     4     5   ar
    24     8     9   ar
    25     9    10   ar
    26    10    11   ar
    27    11    12    1
    28    12    13   ar
    29    13    14   ar
    30    14    15   ar
    31    15    16    1
    32    15    17   ar
    33    11     6   ar
    34    17    12   ar
    35     5     1   ar
    36    26    22   ar
    37    34    31    1
    38    30    23    1
    39    20    21    1
@<TRIPOS>MOLECULE
*****
 34 39 0 0 0
SMALL
GASTEIGER

@<TRIPOS>ATOM
      1 C          60.0047   90.9491    4.9172 C.ar    1  UNL1        0.1074
      2 C          58.5872   91.2770    5.2821 C.ar    1  UNL1        0.0588
      3 S          58.1233   90.2686    6.2911 S.2     1  UNL1       -0.0508
      4 C          59.2541   89.3177    6.5497 C.ar    1  UNL1        0.1646
      5 N          60.4169   89.7382    5.7006 N.ar    1  UNL1       -0.2224
      6 C          61.1514   93.6280    2.2229 C.ar    1  UNL1        0.2416
      7 N          60.2962   92.8768    3.1998 N.ar    1  UNL1       -0.2089
      8 C          60.8599   91.7004    3.9403 C.ar    1  UNL1        0.1026
      9 C          62.2789   91.2752    3.7039 C.ar    1  UNL1        0.0224
     10 C          63.1341   92.0265    2.7270 C.ar    1  UNL1        0.0239
     11 C          62.5703   93.2029    1.9865 C.ar    1  UNL1        0.1189
     12 N          63.4255   93.9541    1.0097 N.ar    1  UNL1       -0.2826
     13 C          64.6262   94.7874    1.3477 C.ar    1  UNL1        0.1826
     14 N          65.1729   95.3522    0.0702 N.ar    1  UNL1       -0.2280
     15 C          64.3101   94.8681   -1.0574 C.ar    1  UNL1        0.0786
     16 C          64.4950   95.1913   -2.5104 C.3     1  UNL1        0.0538
     17 C          63.2302   94.0040   -0.4767 C.ar    1  UNL1        0.0963
     18 C          59.5535   94.5941    0.4164 C.3     1  UNL1        0.2543
     19 O          60.5877   94.8043    1.4824 O.3     1  UNL1       -0.4551
     20 N          59.2270   88.1509    7.4921 N.pl3   1  UNL1       -0.2786
     21 H          58.4710   87.5204    7.4733 H       1  UNL1        0.1555
     22 C          60.3515   87.9447    8.4631 C.ar    1  UNL1        0.1274
     23 C          60.6827   88.8282    9.6292 C.ar    1  UNL1        0.0244
     24 C          61.8782   88.2484   10.3252 C.ar    1  UNL1        0.0773
     25 N          62.2859   87.0065    9.5893 N.ar    1  UNL1       -0.1730
     26 N          61.3424   86.8188    8.4385 N.ar    1  UNL1       -0.2402
     27 C          62.4411   88.9261   11.5392 C.3     1  UNL1        0.0474
     28 C          61.8085   90.1837   12.0571 C.3     1  UNL1        0.0067
     29 C          60.6130   90.7635   11.3610 C.3     1  UNL1        0.0052
     30 C          60.0501   90.0858   10.1471 C.3     1  UNL1        0.0305
     31 C          61.3826   85.7014    7.4386 C.3     1  UNL1        0.1065
     32 C          60.3541   84.9459    6.6502 C.3     1  UNL1        0.0245
     33 C          61.4395   84.1212    6.0245 C.3     1  UNL1        0.0040
     34 C          62.4681   84.8766    6.8128 C.3     1  UNL1        0.0245
@<TRIPOS>BOND
     1    18    19    1
     2    19     6    1
     3     6     7   ar
     4     7     8   ar
     5     8     1    1
     6     1     2   ar
     7     2     3   ar
     8     3     4   ar
     9     4    20    1
    10    20    22    1
    11    22    23   ar
    12    23    24   ar
    13    24    25   ar
    14    25    26   ar
    15    26    31    1
    16    31    32    1
    17    32    33    1
    18    33    34    1
    19    24    27    1
    20    27    28    1
    21    28    29    1
    22    29    30    1
    23     4     5   ar
    24     8     9   ar
    25     9    10   ar
    26    10    11   ar
    27    11    12    1
    28    12    13   ar
    29    13    14   ar
    30    14    15   ar
    31    15    16    1
    32    15    17   ar
    33    11     6   ar
    34    17    12   ar
    35     5     1   ar
    36    26    22   ar
    37    34    31    1
    38    30    23    1
    39    20    21    1
@<TRIPOS>MOLECULE
*****
 34 39 0 0 0
SMALL
GASTEIGER

@<TRIPOS>ATOM
      1 C          59.6844   90.7937    5.0916 C.ar    1  UNL1        0.1074
      2 C          58.2344   91.0930    5.3323 C.ar    1  UNL1        0.0588
      3 S          57.7217   90.1154    6.3478 S.2     1  UNL1       -0.0508
      4 C          58.8548   89.2119    6.7348 C.ar    1  UNL1        0.1646
      5 N          60.0678   89.6311    5.9584 N.ar    1  UNL1       -0.2224
      6 C          60.9978   93.4696    2.4716 C.ar    1  UNL1        0.2416
      7 N          60.0904   92.7353    3.4137 N.ar    1  UNL1       -0.2089
      8 C          60.5916   91.5280    4.1496 C.ar    1  UNL1        0.1026
      9 C          62.0002   91.0552    3.9433 C.ar    1  UNL1        0.0224
     10 C          62.9075   91.7896    3.0011 C.ar    1  UNL1        0.0239
     11 C          62.4062   92.9968    2.2653 C.ar    1  UNL1        0.1189
     12 N          63.3135   93.7312    1.3233 N.ar    1  UNL1       -0.2826
     13 C          64.5530   94.4866    1.7019 C.ar    1  UNL1        0.1826
     14 N          65.1461   95.0614    0.4498 N.ar    1  UNL1       -0.2280
     15 C          64.2733   94.6612   -0.7027 C.ar    1  UNL1        0.0786
     16 C          64.4943   95.0202   -2.1422 C.3     1  UNL1        0.0538
     17 C          63.1407   93.8391   -0.1628 C.ar    1  UNL1        0.0963
     18 C          59.5245   94.5158    0.6048 C.3     1  UNL1        0.2543
     19 O          60.4966   94.6769    1.7358 O.3     1  UNL1       -0.4551
     20 N          58.7868   88.0866    7.7245 N.pl3   1  UNL1       -0.2786
     21 H          57.9179   87.6844    7.9535 H       1  UNL1        0.1555
     22 C          60.0427   87.5744    8.3651 C.ar    1  UNL1        0.1274
     23 C          60.9134   86.4714    7.8405 C.ar    1  UNL1        0.0244
     24 C          62.0572   86.2905    8.7939 C.ar    1  UNL1        0.0773
     25 N          61.8933   87.2817    9.9078 N.ar    1  UNL1       -0.1730
     26 N          60.6483   88.0752    9.6427 N.ar    1  UNL1       -0.2402
     27 C          63.1001   85.2466    8.5247 C.3     1  UNL1        0.0474
     28 C          62.9992   84.3836    7.3020 C.3     1  UNL1        0.0067
     29 C          61.8555   84.5645    6.3485 C.3     1  UNL1        0.0052
     30 C          60.8125   85.6084    6.6178 C.3     1  UNL1        0.0305
     31 C          60.1044   89.1762   10.5041 C.3     1  UNL1        0.1065
     32 C          59.3322   89.2347   11.7889 C.3     1  UNL1        0.0245
     33 C          59.3351   90.7332   11.7223 C.3     1  UNL1        0.0040
     34 C          60.1073   90.6747   10.4376 C.3     1  UNL1        0.0245
@<TRIPOS>BOND
     1    18    19    1
     2    19     6    1
     3     6     7   ar
     4     7     8   ar
     5     8     1    1
     6     1     2   ar
     7     2     3   ar
     8     3     4   ar
     9     4    20    1
    10    20    22    1
    11    22    23   ar
    12    23    24   ar
    13    24    25   ar
    14    25    26   ar
    15    26    31    1
    16    31    32    1
    17    32    33    1
    18    33    34    1
    19    24    27    1
    20    27    28    1
    21    28    29    1
    22    29    30    1
    23     4     5   ar
    24     8     9   ar
    25     9    10   ar
    26    10    11   ar
    27    11    12    1
    28    12    13   ar
    29    13    14   ar
    30    14    15   ar
    31    15    16    1
    32    15    17   ar
    33    11     6   ar
    34    17    12   ar
    35     5     1   ar
    36    26    22   ar
    37    34    31    1
    38    30    23    1
    39    20    21    1
@<TRIPOS>MOLECULE
*****
 34 39 0 0 0
SMALL
GASTEIGER

@<TRIPOS>ATOM
      1 C          62.5032   88.6479   11.4177 C.ar    1  UNL1        0.1074
      2 C          61.4498   89.4330   10.6939 C.ar    1  UNL1        0.0588
      3 S          61.8055   90.8869   10.7928 S.2     1  UNL1       -0.0508
      4 C          63.0787   91.0002   11.5777 C.ar    1  UNL1        0.1646
      5 N          63.5099   89.6165   11.9639 N.ar    1  UNL1       -0.2224
      6 C          63.2088   85.0499   12.9367 C.ar    1  UNL1        0.2416
      7 N          63.1692   86.5418   12.7857 N.ar    1  UNL1       -0.2089
      8 C          62.5429   87.1561   11.5688 C.ar    1  UNL1        0.1026
      9 C          61.9564   86.2784   10.5031 C.ar    1  UNL1        0.0224
     10 C          61.9961   84.7865   10.6542 C.ar    1  UNL1        0.0239
     11 C          62.6223   84.1723   11.8710 C.ar    1  UNL1        0.1189
     12 N          62.6620   82.6805   12.0221 N.ar    1  UNL1       -0.2826
     13 C          63.1928   81.7059   11.0129 C.ar    1  UNL1        0.1826
     14 N          63.0368   80.3244   11.5759 N.ar    1  UNL1       -0.2280
     15 C          62.4095   80.4451   12.9332 C.ar    1  UNL1        0.0786
     16 C          62.0730   79.3092   13.8532 C.3     1  UNL1        0.0538
     17 C          62.1779   81.9014   13.2089 C.ar    1  UNL1        0.0963
     18 C          64.5645   85.3000   15.1389 C.3     1  UNL1        0.2543
     19 O          63.8351   84.4358   14.1535 O.3     1  UNL1       -0.4551
     20 N          63.7950   92.2739   11.9169 N.pl3   1  UNL1       -0.2786
     21 H          63.2985   93.1232   11.9532 H       1  UNL1        0.1555
     22 C          65.2678   92.2533   12.2006 C.ar    1  UNL1        0.1274
     23 C          66.3620   92.4716   11.1980 C.ar    1  UNL1        0.0244
     24 C          67.6754   92.3641   11.9145 C.ar    1  UNL1        0.0773
     25 N          67.3929   92.0794   13.3599 N.ar    1  UNL1       -0.1730
     26 N          65.9050   92.0109   13.5367 N.ar    1  UNL1       -0.2402
     27 C          68.9588   92.5394   11.1582 C.3     1  UNL1        0.0474
     28 C          68.9289   92.8222    9.6855 C.3     1  UNL1        0.0067
     29 C          67.6154   92.9297    8.9690 C.3     1  UNL1        0.0052
     30 C          66.3320   92.7544    9.7253 C.3     1  UNL1        0.0305
     31 C          65.1813   91.7464   14.8237 C.3     1  UNL1        0.1065
     32 C          65.2669   92.2889   16.2196 C.3     1  UNL1        0.0245
     33 C          64.1578   91.3724   16.6438 C.3     1  UNL1        0.0040
     34 C          64.0720   90.8300   15.2479 C.3     1  UNL1        0.0245
@<TRIPOS>BOND
     1    18    19    1
     2    19     6    1
     3     6     7   ar
     4     7     8   ar
     5     8     1    1
     6     1     2   ar
     7     2     3   ar
     8     3     4   ar
     9     4    20    1
    10    20    22    1
    11    22    23   ar
    12    23    24   ar
    13    24    25   ar
    14    25    26   ar
    15    26    31    1
    16    31    32    1
    17    32    33    1
    18    33    34    1
    19    24    27    1
    20    27    28    1
    21    28    29    1
    22    29    30    1
    23     4     5   ar
    24     8     9   ar
    25     9    10   ar
    26    10    11   ar
    27    11    12    1
    28    12    13   ar
    29    13    14   ar
    30    14    15   ar
    31    15    16    1
    32    15    17   ar
    33    11     6   ar
    34    17    12   ar
    35     5     1   ar
    36    26    22   ar
    37    34    31    1
    38    30    23    1
    39    20    21    1
@<TRIPOS>MOLECULE
*****
 34 39 0 0 0
SMALL
GASTEIGER

@<TRIPOS>ATOM
      1 C          62.6750   89.8108   12.3849 C.ar    1  UNL1        0.1074
      2 C          61.3521   90.4522   12.0877 C.ar    1  UNL1        0.0588
      3 S          60.4252   89.3885   11.5785 S.2     1  UNL1       -0.0508
      4 C          61.1753   88.0896   11.5610 C.ar    1  UNL1        0.1646
      5 N          62.5658   88.3506   12.0594 N.ar    1  UNL1       -0.2224
      6 C          65.7223   92.3369   12.6742 C.ar    1  UNL1        0.2416
      7 N          64.5039   91.6404   12.1444 N.ar    1  UNL1       -0.2089
      8 C          63.8933   90.5073   12.9147 C.ar    1  UNL1        0.1026
      9 C          64.5011   90.0706   14.2147 C.ar    1  UNL1        0.0224
     10 C          65.7195   90.7671   14.7444 C.ar    1  UNL1        0.0239
     11 C          66.3300   91.9002   13.9742 C.ar    1  UNL1        0.1189
     12 N          67.5483   92.5967   14.5039 N.ar    1  UNL1       -0.2826
     13 C          68.9701   92.2831   14.1430 C.ar    1  UNL1        0.1826
     14 N          69.8592   93.2216   14.9036 N.ar    1  UNL1       -0.2280
     15 C          68.9870   94.1154   15.7346 C.ar    1  UNL1        0.0786
     16 C          69.4600   95.2041   16.6516 C.3     1  UNL1        0.0538
     17 C          67.5587   93.7291   15.4875 C.ar    1  UNL1        0.0963
     18 C          66.6996   93.2846   10.4614 C.3     1  UNL1        0.2543
     19 O          66.3328   93.4700   11.9040 O.3     1  UNL1       -0.4551
     20 N          60.6306   86.7627   11.1221 N.pl3   1  UNL1       -0.2786
     21 H          59.6959   86.5246   11.3195 H       1  UNL1        0.1555
     22 C          61.5100   85.7985   10.3824 C.ar    1  UNL1        0.1274
     23 C          61.4925   85.5450    8.9041 C.ar    1  UNL1        0.0244
     24 C          62.5329   84.5084    8.5992 C.ar    1  UNL1        0.0773
     25 N          63.1934   84.1212    9.8891 N.ar    1  UNL1       -0.1730
     26 N          62.5612   84.9185   10.9912 N.ar    1  UNL1       -0.2402
     27 C          62.7444   84.0510    7.1864 C.3     1  UNL1        0.0474
     28 C          61.9156   84.6302    6.0785 C.3     1  UNL1        0.0067
     29 C          60.8752   85.6668    6.3834 C.3     1  UNL1        0.0052
     30 C          60.6636   86.1242    7.7962 C.3     1  UNL1        0.0305
     31 C          62.9176   84.8482   12.4465 C.3     1  UNL1        0.1065
     32 C          63.7838   85.6564   13.3667 C.3     1  UNL1        0.0245
     33 C          63.4216   84.7488   14.5047 C.3     1  UNL1        0.0040
     34 C          62.5554   83.9406   13.5846 C.3     1  UNL1        0.0245
@<TRIPOS>BOND
     1    18    19    1
     2    19     6    1
     3     6     7   ar
     4     7     8   ar
     5     8     1    1
     6     1     2   ar
     7     2     3   ar
     8     3     4   ar
     9     4    20    1
    10    20    22    1
    11    22    23   ar
    12    23    24   ar
    13    24    25   ar
    14    25    26   ar
    15    26    31    1
    16    31    32    1
    17    32    33    1
    18    33    34    1
    19    24    27    1
    20    27    28    1
    21    28    29    1
    22    29    30    1
    23     4     5   ar
    24     8     9   ar
    25     9    10   ar
    26    10    11   ar
    27    11    12    1
    28    12    13   ar
    29    13    14   ar
    30    14    15   ar
    31    15    16    1
    32    15    17   ar
    33    11     6   ar
    34    17    12   ar
    35     5     1   ar
    36    26    22   ar
    37    34    31    1
    38    30    23    1
    39    20    21    1
