@<TRIPOS>MOLECULE
*****
 16 17 0 0 0
SMALL
GASTEIGER

@<TRIPOS>ATOM
      1 C          66.1183   93.4825   11.9129 C.ar    1  UNL1        0.1461
      2 C          65.2389   92.2700   11.9932 C.ar    1  UNL1        0.0403
      3 C          65.2459   91.7855   13.4128 C.ar    1  UNL1        0.0375
      4 C          66.1297   92.6987   14.2099 C.ar    1  UNL1        0.1385
      5 O          66.6688   93.7474   13.2828 O.2     1  UNL1       -0.4563
      6 C          68.0150   92.4379    9.8366 C.3     1  UNL1        0.0312
      7 C          67.3464   93.7663    9.6411 C.ar    1  UNL1       -0.0159
      8 C          67.6261   94.5724    8.4074 C.ar    1  UNL1        0.0165
      9 C          66.9575   95.9008    8.2119 C.ar    1  UNL1        0.0986
     10 N          66.0091   96.4231    9.2500 N.ar    1  UNL1       -0.2422
     11 C          65.7294   95.6170   10.4837 C.ar    1  UNL1        0.1016
     12 C          66.3980   94.2886   10.6792 C.ar    1  UNL1        0.0498
     13 C          66.4228   92.5833   15.6764 C.3     1  UNL1        0.1307
     14 N          65.3298   92.8055   16.6794 N.3     1  UNL1       -0.3148
     15 H          65.0267   93.7787   16.6420 H       1  UNL1        0.1192
     16 H          65.6781   92.5936   17.6144 H       1  UNL1        0.1192
@<TRIPOS>BOND
     1     6     7    1
     2     7     8   ar
     3     8     9   ar
     4     9    10   ar
     5    10    11   ar
     6    11    12   ar
     7    12     1    1
     8     1     2   ar
     9     2     3   ar
    10     3     4   ar
    11     4    13    1
    12    13    14    1
    13     4     5   ar
    14    12     7   ar
    15     5     1   ar
    16    14    15    1
    17    14    16    1
@<TRIPOS>MOLECULE
*****
 16 17 0 0 0
SMALL
GASTEIGER

@<TRIPOS>ATOM
      1 C          61.9294   89.1825   10.4991 C.ar    1  UNL1        0.1461
      2 C          62.7781   90.3768   10.1774 C.ar    1  UNL1        0.0403
      3 C          63.4579   90.8161   11.4403 C.ar    1  UNL1        0.0375
      4 C          63.0294   89.8933   12.5425 C.ar    1  UNL1        0.1385
      5 O          62.0847   88.8837   11.9609 O.2     1  UNL1       -0.4563
      6 C          62.2515   86.2121   10.2285 C.3     1  UNL1        0.0312
      7 C          61.2364   86.9356    9.3941 C.ar    1  UNL1       -0.0159
      8 C          60.3824   86.1738    8.4244 C.ar    1  UNL1        0.0165
      9 C          59.3673   86.8973    7.5900 C.ar    1  UNL1        0.0986
     10 N          59.2063   88.3824    7.7253 N.ar    1  UNL1       -0.2422
     11 C          60.0603   89.1441    8.6950 C.ar    1  UNL1        0.1016
     12 C          61.0754   88.4207    9.5294 C.ar    1  UNL1        0.0498
     13 C          63.4684   89.9672   13.9749 C.3     1  UNL1        0.1307
     14 N          63.4562   91.2824   14.6962 N.3     1  UNL1       -0.3148
     15 H          64.1430   91.9077   14.2747 H       1  UNL1        0.1192
     16 H          63.6891   91.1339   15.6781 H       1  UNL1        0.1192
@<TRIPOS>BOND
     1     6     7    1
     2     7     8   ar
     3     8     9   ar
     4     9    10   ar
     5    10    11   ar
     6    11    12   ar
     7    12     1    1
     8     1     2   ar
     9     2     3   ar
    10     3     4   ar
    11     4    13    1
    12    13    14    1
    13     4     5   ar
    14    12     7   ar
    15     5     1   ar
    16    14    15    1
    17    14    16    1
@<TRIPOS>MOLECULE
*****
 16 17 0 0 0
SMALL
GASTEIGER

@<TRIPOS>ATOM
      1 C          65.7930   92.8640   11.8699 C.ar    1  UNL1        0.1461
      2 C          66.3449   92.5777   13.2350 C.ar    1  UNL1        0.0403
      3 C          65.4858   91.5255   13.8711 C.ar    1  UNL1        0.0375
      4 C          64.4028   91.1613   12.8990 C.ar    1  UNL1        0.1385
      5 O          64.5927   91.9886   11.6623 O.2     1  UNL1       -0.4563
      6 C          67.9229   92.0217    9.9324 C.3     1  UNL1        0.0312
      7 C          67.4095   93.4310    9.9166 C.ar    1  UNL1       -0.0159
      8 C          67.9609   94.4191    8.9320 C.ar    1  UNL1        0.0165
      9 C          67.4474   95.8284    8.9161 C.ar    1  UNL1        0.0986
     10 N          66.3825   96.2495    9.8848 N.ar    1  UNL1       -0.2422
     11 C          65.8310   95.2614   10.8694 C.ar    1  UNL1        0.1016
     12 C          66.3445   93.8521   10.8853 C.ar    1  UNL1        0.0498
     13 C          63.3201   90.1479   13.1243 C.3     1  UNL1        0.1307
     14 N          62.6649   90.0368   14.4690 N.3     1  UNL1       -0.3148
     15 H          63.3475   89.7124   15.1541 H       1  UNL1        0.1192
     16 H          61.8930   89.3720   14.4172 H       1  UNL1        0.1192
@<TRIPOS>BOND
     1     6     7    1
     2     7     8   ar
     3     8     9   ar
     4     9    10   ar
     5    10    11   ar
     6    11    12   ar
     7    12     1    1
     8     1     2   ar
     9     2     3   ar
    10     3     4   ar
    11     4    13    1
    12    13    14    1
    13     4     5   ar
    14    12     7   ar
    15     5     1   ar
    16    14    15    1
    17    14    16    1
@<TRIPOS>MOLECULE
*****
 16 17 0 0 0
SMALL
GASTEIGER

@<TRIPOS>ATOM
      1 C          61.9588   86.0352   10.6658 C.ar    1  UNL1        0.1461
      2 C          62.1770   87.4892   10.9625 C.ar    1  UNL1        0.0403
      3 C          61.2563   88.2846   10.0852 C.ar    1  UNL1        0.0375
      4 C          60.4690   87.3221    9.2462 C.ar    1  UNL1        0.1385
      5 O          60.9032   85.9319    9.6051 O.2     1  UNL1       -0.4563
      6 C          63.6101   84.1609    9.0043 C.3     1  UNL1        0.0312
      7 C          63.4967   83.9490   10.4849 C.ar    1  UNL1       -0.0159
      8 C          64.2089   82.8000   11.1348 C.ar    1  UNL1        0.0165
      9 C          64.0956   82.5880   12.6154 C.ar    1  UNL1        0.0986
     10 N          63.2700   83.5251   13.4462 N.ar    1  UNL1       -0.2422
     11 C          62.5577   84.6742   12.7963 C.ar    1  UNL1        0.1016
     12 C          62.6711   84.8861   11.3157 C.ar    1  UNL1        0.0498
     13 C          59.4301   87.6860    8.2274 C.3     1  UNL1        0.1307
     14 N          58.3965   86.6791    7.8177 N.3     1  UNL1       -0.3148
     15 H          58.8495   85.9057    7.3309 H       1  UNL1        0.1192
     16 H          57.7185   87.1211    7.1969 H       1  UNL1        0.1192
@<TRIPOS>BOND
     1     6     7    1
     2     7     8   ar
     3     8     9   ar
     4     9    10   ar
     5    10    11   ar
     6    11    12   ar
     7    12     1    1
     8     1     2   ar
     9     2     3   ar
    10     3     4   ar
    11     4    13    1
    12    13    14    1
    13     4     5   ar
    14    12     7   ar
    15     5     1   ar
    16    14    15    1
    17    14    16    1
@<TRIPOS>MOLECULE
*****
 16 17 0 0 0
SMALL
GASTEIGER

@<TRIPOS>ATOM
      1 C          62.5956   85.3694   12.0004 C.ar    1  UNL1        0.1461
      2 C          61.6959   85.6277   10.8284 C.ar    1  UNL1        0.0403
      3 C          61.6446   87.1095   10.6012 C.ar    1  UNL1        0.0375
      4 C          62.5127   87.7670   11.6328 C.ar    1  UNL1        0.1385
      5 O          63.1004   86.6915   12.4976 O.2     1  UNL1       -0.4563
      6 C          64.0364   83.3403   10.3250 C.3     1  UNL1        0.0312
      7 C          63.6520   83.0104   11.7369 C.ar    1  UNL1       -0.0159
      8 C          63.9880   81.6661   12.3110 C.ar    1  UNL1        0.0165
      9 C          63.6035   81.3362   13.7229 C.ar    1  UNL1        0.0986
     10 N          62.8831   82.3506   14.5606 N.ar    1  UNL1       -0.2422
     11 C          62.5472   83.6950   13.9864 C.ar    1  UNL1        0.1016
     12 C          62.9316   84.0249   12.5746 C.ar    1  UNL1        0.0498
     13 C          62.7511   89.2411   11.7747 C.3     1  UNL1        0.1307
     14 N          62.0801   90.0068   12.8763 N.3     1  UNL1       -0.3148
     15 H          61.0718   90.0110   12.7221 H       1  UNL1        0.1192
     16 H          62.4269   90.9660   12.8838 H       1  UNL1        0.1192
@<TRIPOS>BOND
     1     6     7    1
     2     7     8   ar
     3     8     9   ar
     4     9    10   ar
     5    10    11   ar
     6    11    12   ar
     7    12     1    1
     8     1     2   ar
     9     2     3   ar
    10     3     4   ar
    11     4    13    1
    12    13    14    1
    13     4     5   ar
    14    12     7   ar
    15     5     1   ar
    16    14    15    1
    17    14    16    1
@<TRIPOS>MOLECULE
*****
 16 17 0 0 0
SMALL
GASTEIGER

@<TRIPOS>ATOM
      1 C          62.6222   84.9281   10.9723 C.ar    1  UNL1        0.1461
      2 C          63.3254   84.7483    9.6597 C.ar    1  UNL1        0.0403
      3 C          62.5002   85.4116    8.5971 C.ar    1  UNL1        0.0375
      4 C          61.2869   86.0013    9.2531 C.ar    1  UNL1        0.1385
      5 O          61.3623   85.7025   10.7210 O.2     1  UNL1       -0.4563
      6 C          62.7340   81.9773   11.5020 C.3     1  UNL1        0.0312
      7 C          63.1515   82.9469   12.5676 C.ar    1  UNL1       -0.0159
      8 C          63.6250   82.4411   13.8980 C.ar    1  UNL1        0.0165
      9 C          64.0425   83.4107   14.9636 C.ar    1  UNL1        0.0986
     10 N          63.9866   84.8861   14.6988 N.ar    1  UNL1       -0.2422
     11 C          63.5132   85.3918   13.3684 C.ar    1  UNL1        0.1016
     12 C          63.0956   84.4222   12.3028 C.ar    1  UNL1        0.0498
     13 C          60.1907   86.7572    8.5623 C.3     1  UNL1        0.1307
     14 N          59.3346   86.0698    7.5403 N.3     1  UNL1       -0.3148
     15 H          59.9046   85.8193    6.7323 H       1  UNL1        0.1192
     16 H          58.5858   86.6971    7.2467 H       1  UNL1        0.1192
@<TRIPOS>BOND
     1     6     7    1
     2     7     8   ar
     3     8     9   ar
     4     9    10   ar
     5    10    11   ar
     6    11    12   ar
     7    12     1    1
     8     1     2   ar
     9     2     3   ar
    10     3     4   ar
    11     4    13    1
    12    13    14    1
    13     4     5   ar
    14    12     7   ar
    15     5     1   ar
    16    14    15    1
    17    14    16    1
@<TRIPOS>MOLECULE
*****
 16 17 0 0 0
SMALL
GASTEIGER

@<TRIPOS>ATOM
      1 C          64.0217   89.3277   15.0121 C.ar    1  UNL1        0.1461
      2 C          63.2796   89.5590   16.2950 C.ar    1  UNL1        0.0403
      3 C          63.0219   88.2240   16.9286 C.ar    1  UNL1        0.0375
      4 C          63.6048   87.1676   16.0372 C.ar    1  UNL1        0.1385
      5 O          64.2227   87.8498   14.8528 O.2     1  UNL1       -0.4563
      6 C          62.6745   89.6343   12.3492 C.3     1  UNL1        0.0312
      7 C          63.8084   90.5415   12.7249 C.ar    1  UNL1       -0.0159
      8 C          64.2688   91.6020   11.7692 C.ar    1  UNL1        0.0165
      9 C          65.4027   92.5092   12.1449 C.ar    1  UNL1        0.0986
     10 N          66.0763   92.3559   13.4763 N.ar    1  UNL1       -0.2422
     11 C          65.6159   91.2955   14.4321 C.ar    1  UNL1        0.1016
     12 C          64.4820   90.3883   14.0563 C.ar    1  UNL1        0.0498
     13 C          63.5750   85.6888   16.2865 C.3     1  UNL1        0.1307
     14 N          64.5565   84.7914   15.5928 N.3     1  UNL1       -0.3148
     15 H          64.3739   84.7990   14.5893 H       1  UNL1        0.1192
     16 H          64.4586   83.8406   15.9490 H       1  UNL1        0.1192
@<TRIPOS>BOND
     1     6     7    1
     2     7     8   ar
     3     8     9   ar
     4     9    10   ar
     5    10    11   ar
     6    11    12   ar
     7    12     1    1
     8     1     2   ar
     9     2     3   ar
    10     3     4   ar
    11     4    13    1
    12    13    14    1
    13     4     5   ar
    14    12     7   ar
    15     5     1   ar
    16    14    15    1
    17    14    16    1
@<TRIPOS>MOLECULE
*****
 16 17 0 0 0
SMALL
GASTEIGER

@<TRIPOS>ATOM
      1 C          62.2387   85.5762   11.4315 C.ar    1  UNL1        0.1461
      2 C          63.0085   84.4175   10.8706 C.ar    1  UNL1        0.0403
      3 C          63.3503   83.4960   12.0038 C.ar    1  UNL1        0.0375
      4 C          62.7917   84.0853   13.2651 C.ar    1  UNL1        0.1385
      5 O          62.1047   85.3709   12.9113 O.2     1  UNL1       -0.4563
      6 C          63.1135   88.3686   12.0927 C.3     1  UNL1        0.0312
      7 C          62.1352   88.1328   10.9804 C.ar    1  UNL1       -0.0159
      8 C          61.5943   89.2931   10.1987 C.ar    1  UNL1        0.0165
      9 C          60.6160   89.0572    9.0864 C.ar    1  UNL1        0.0986
     10 N          60.1786   87.6610    8.7557 N.ar    1  UNL1       -0.2422
     11 C          60.7195   86.5008    9.5374 C.ar    1  UNL1        0.1016
     12 C          61.6978   86.7366   10.6498 C.ar    1  UNL1        0.0498
     13 C          62.9009   83.4930   14.6388 C.3     1  UNL1        0.1307
     14 N          62.3750   82.1136   14.9047 N.3     1  UNL1       -0.3148
     15 H          61.3607   82.1099   14.7974 H       1  UNL1        0.1192
     16 H          62.6174   81.8348   15.8555 H       1  UNL1        0.1192
@<TRIPOS>BOND
     1     6     7    1
     2     7     8   ar
     3     8     9   ar
     4     9    10   ar
     5    10    11   ar
     6    11    12   ar
     7    12     1    1
     8     1     2   ar
     9     2     3   ar
    10     3     4   ar
    11     4    13    1
    12    13    14    1
    13     4     5   ar
    14    12     7   ar
    15     5     1   ar
    16    14    15    1
    17    14    16    1
@<TRIPOS>MOLECULE
*****
 16 17 0 0 0
SMALL
GASTEIGER

@<TRIPOS>ATOM
      1 C          63.5078   84.9513   13.7717 C.ar    1  UNL1        0.1461
      2 C          64.4111   85.4809   14.8457 C.ar    1  UNL1        0.0403
      3 C          64.5468   86.9617   14.6488 C.ar    1  UNL1        0.0375
      4 C          63.7274   87.3474   13.4530 C.ar    1  UNL1        0.1385
      5 O          63.0853   86.1049   12.9109 O.2     1  UNL1       -0.4563
      6 C          64.2501   83.4859   11.2613 C.3     1  UNL1        0.0312
      7 C          63.4700   82.7869   12.3350 C.ar    1  UNL1       -0.0159
      8 C          63.0610   81.3552   12.1536 C.ar    1  UNL1        0.0165
      9 C          62.2809   80.6562   13.2273 C.ar    1  UNL1        0.0986
     10 N          61.9098   81.3889   14.4825 N.ar    1  UNL1       -0.2422
     11 C          62.3188   82.8205   14.6639 C.ar    1  UNL1        0.1016
     12 C          63.0989   83.5196   13.5902 C.ar    1  UNL1        0.0498
     13 C          63.5766   88.7323   12.8970 C.3     1  UNL1        0.1307
     14 N          62.2350   89.2089   12.4248 N.3     1  UNL1       -0.3148
     15 H          61.9486   88.6658   11.6103 H       1  UNL1        0.1192
     16 H          62.2942   90.1953   12.1720 H       1  UNL1        0.1192
@<TRIPOS>BOND
     1     6     7    1
     2     7     8   ar
     3     8     9   ar
     4     9    10   ar
     5    10    11   ar
     6    11    12   ar
     7    12     1    1
     8     1     2   ar
     9     2     3   ar
    10     3     4   ar
    11     4    13    1
    12    13    14    1
    13     4     5   ar
    14    12     7   ar
    15     5     1   ar
    16    14    15    1
    17    14    16    1
