@<TRIPOS>MOLECULE
*****
 43 47 0 0 0
SMALL
GASTEIGER

@<TRIPOS>ATOM
      1 C          63.2321   83.3174   12.5700 C.3     1  UNL1        0.1139
      2 C          61.3704   86.3921    9.8626 C.ar    1  UNL1       -0.0000
      3 C          62.2976   85.3575    9.2968 C.ar    1  UNL1       -0.0003
      4 C          62.9181   84.3326   10.1993 C.ar    1  UNL1       -0.0026
      5 C          62.6115   84.3422   11.6676 C.ar    1  UNL1       -0.0029
      6 C          61.6844   85.3767   12.2334 C.ar    1  UNL1       -0.0026
      7 C          61.0638   86.4017   11.3309 C.ar    1  UNL1       -0.0003
      8 C          59.5088   89.4667    7.1551 C.ar    1  UNL1        0.0503
      9 C          59.3453   88.0061    6.8553 C.ar    1  UNL1        0.0147
     10 C          59.9659   86.9812    7.7579 C.ar    1  UNL1        0.0013
     11 C          60.7499   87.4169    8.9601 C.ar    1  UNL1        0.0001
     12 C          60.9133   88.8776    9.2599 C.ar    1  UNL1        0.0013
     13 C          60.2928   89.9024    8.3574 C.ar    1  UNL1        0.0147
     14 C          59.0945   92.1805    4.2891 C.3     1  UNL1        0.0949
     15 C          59.7150   91.1556    5.1916 C.2     1  UNL1        0.2266
     16 O          61.1623   90.7947    5.0332 O.2     1  UNL1       -0.2748
     17 N          58.8883   90.4916    6.2526 N.am    1  UNL1       -0.2839
     18 H          57.9383   90.7285    6.3566 H       1  UNL1        0.1549
     19 N          64.6116   83.5364   13.1168 N.am    1  UNL1       -0.2729
     20 C          65.6329   82.4407   13.0365 C.3     1  UNL1        0.1152
     21 C          64.9698   84.8512   13.7439 C.2     1  UNL1        0.2465
     22 O          66.3493   85.0702   14.2907 O.2     1  UNL1       -0.2730
     23 C          63.9485   85.9468   13.8242 C.3     1  UNL1        0.1835
     24 N          63.5515   86.5057   15.1584 N.am    1  UNL1       -0.2439
     25 C          62.9914   85.5997   16.2145 C.2     1  UNL1        0.2744
     26 O          62.8283   84.1347   15.9364 O.2     1  UNL1       -0.2705
     27 C          62.5943   86.1586   17.5486 C.3     1  UNL1        0.2900
     28 O          62.7574   87.6235   17.8266 O.3     1  UNL1       -0.4643
     29 C          63.3175   88.5296   16.7706 C.ar    1  UNL1        0.1525
     30 C          63.4805   89.9945   17.0486 C.ar    1  UNL1        0.0336
     31 C          64.0406   90.9006   15.9925 C.ar    1  UNL1       -0.0227
     32 C          64.2037   92.3655   16.2706 C.3     1  UNL1        0.0308
     33 C          64.4377   90.3417   14.6583 C.ar    1  UNL1       -0.0244
     34 C          64.9978   91.2477   13.6023 C.3     1  UNL1        0.0307
     35 C          64.2746   88.8767   14.3803 C.ar    1  UNL1        0.0134
     36 C          63.7145   87.9707   15.4365 C.ar    1  UNL1        0.0882
     37 C          62.4731   82.0734   12.9258 C.3     1  UNL1        0.0968
     38 N          62.5880   80.8520   12.0626 N.3     1  UNL1       -0.2667
     39 C          62.3837   79.4906   12.6584 C.3     1  UNL1        0.1047
     40 C          62.4987   78.2693   11.7952 C.3     1  UNL1        0.1595
     41 O          62.8179   78.4093   10.3362 O.3     1  UNL1       -0.3508
     42 C          63.0222   79.7707    9.7405 C.3     1  UNL1        0.1595
     43 C          62.9072   80.9920   10.6037 C.3     1  UNL1        0.1047
@<TRIPOS>BOND
     1    14    15    1
     2    15    16    2
     3    15    17   am
     4    17     8    1
     5     8     9   ar
     6     9    10   ar
     7    10    11   ar
     8    11     2    1
     9     2     3   ar
    10     3     4   ar
    11     4     5   ar
    12     5     1    1
    13     1    37    1
    14    37    38    1
    15    38    39    1
    16    39    40    1
    17    40    41    1
    18    41    42    1
    19    42    43    1
    20     1    19    1
    21    19    20    1
    22    19    21   am
    23    21    22    2
    24    21    23    1
    25    23    24    1
    26    24    25   am
    27    25    26    2
    28    25    27    1
    29    27    28    1
    30    28    29    1
    31    29    30   ar
    32    30    31   ar
    33    31    32    1
    34    31    33   ar
    35    33    34    1
    36    33    35   ar
    37    35    36   ar
    38     5     6   ar
    39     6     7   ar
    40    11    12   ar
    41    12    13   ar
    42    13     8   ar
    43     7     2   ar
    44    43    38    1
    45    36    24    1
    46    36    29   ar
    47    17    18    1
@<TRIPOS>MOLECULE
*****
 43 47 0 0 0
SMALL
GASTEIGER

@<TRIPOS>ATOM
      1 C          63.6746   90.0420   13.3866 C.3     1  UNL1        0.1139
      2 C          63.3303   85.5881   12.8444 C.ar    1  UNL1       -0.0000
      3 C          64.0776   86.1450   14.0197 C.ar    1  UNL1       -0.0003
      4 C          64.1924   87.6296   14.2005 C.ar    1  UNL1       -0.0026
      5 C          63.5599   88.5574   13.2059 C.ar    1  UNL1       -0.0029
      6 C          62.8126   88.0005   12.0306 C.ar    1  UNL1       -0.0026
      7 C          62.6978   86.5158   11.8498 C.ar    1  UNL1       -0.0003
      8 C          62.9861   81.1342   12.3021 C.ar    1  UNL1        0.0503
      9 C          63.8358   81.9403   11.3650 C.ar    1  UNL1        0.0147
     10 C          63.9505   83.4250   11.5458 C.ar    1  UNL1        0.0013
     11 C          63.2156   84.1035   12.6636 C.ar    1  UNL1        0.0001
     12 C          62.3659   83.2973   13.6007 C.ar    1  UNL1        0.0013
     13 C          62.2512   81.8127   13.4200 C.ar    1  UNL1        0.0147
     14 C          62.6758   77.5813   10.5611 C.3     1  UNL1        0.0949
     15 C          62.7905   79.0659   10.7418 C.2     1  UNL1        0.2266
     16 O          62.8244   79.9670    9.5431 O.2     1  UNL1       -0.2748
     17 N          62.8714   79.6495   12.1213 N.am    1  UNL1       -0.2839
     18 H          62.8491   79.0581   12.9081 H       1  UNL1        0.1549
     19 N          64.1986   90.6023   14.6756 N.am    1  UNL1       -0.2729
     20 C          64.0205   89.8372   15.9534 C.3     1  UNL1        0.1152
     21 C          64.9006   91.9279   14.6867 C.2     1  UNL1        0.2465
     22 O          65.4246   92.4883   15.9757 O.2     1  UNL1       -0.2730
     23 C          65.0787   92.6931   13.4089 C.3     1  UNL1        0.1835
     24 N          66.3525   92.5623   12.6277 N.am    1  UNL1       -0.2439
     25 C          67.3868   91.5581   13.0421 C.2     1  UNL1        0.2744
     26 O          67.1472   90.6845   14.2377 O.2     1  UNL1       -0.2705
     27 C          68.6605   91.4274   12.2609 C.3     1  UNL1        0.2900
     28 O          68.9001   92.3010   11.0653 O.3     1  UNL1       -0.4643
     29 C          67.8658   93.3052   10.6509 C.ar    1  UNL1        0.1525
     30 C          68.1054   94.1788    9.4553 C.ar    1  UNL1        0.0336
     31 C          67.0711   95.1831    9.0409 C.ar    1  UNL1       -0.0227
     32 C          67.3107   96.0567    7.8453 C.3     1  UNL1        0.0308
     33 C          65.7973   95.3138    9.8221 C.ar    1  UNL1       -0.0244
     34 C          64.7630   96.3181    9.4078 C.3     1  UNL1        0.0307
     35 C          65.5577   94.4402   11.0177 C.ar    1  UNL1        0.0134
     36 C          66.5921   93.4359   11.4321 C.ar    1  UNL1        0.0882
     37 C          63.2654   90.9663   12.2784 C.3     1  UNL1        0.0968
     38 N          62.1105   90.6079   11.3908 N.3     1  UNL1       -0.2667
     39 C          62.3578   90.1768    9.9755 C.3     1  UNL1        0.1047
     40 C          61.2029   89.8185    9.0879 C.3     1  UNL1        0.1595
     41 O          59.8006   89.8912    9.6157 O.3     1  UNL1       -0.3508
     42 C          59.5534   90.3222   11.0309 C.3     1  UNL1        0.1595
     43 C          60.7083   90.6806   11.9185 C.3     1  UNL1        0.1047
@<TRIPOS>BOND
     1    14    15    1
     2    15    16    2
     3    15    17   am
     4    17     8    1
     5     8     9   ar
     6     9    10   ar
     7    10    11   ar
     8    11     2    1
     9     2     3   ar
    10     3     4   ar
    11     4     5   ar
    12     5     1    1
    13     1    37    1
    14    37    38    1
    15    38    39    1
    16    39    40    1
    17    40    41    1
    18    41    42    1
    19    42    43    1
    20     1    19    1
    21    19    20    1
    22    19    21   am
    23    21    22    2
    24    21    23    1
    25    23    24    1
    26    24    25   am
    27    25    26    2
    28    25    27    1
    29    27    28    1
    30    28    29    1
    31    29    30   ar
    32    30    31   ar
    33    31    32    1
    34    31    33   ar
    35    33    34    1
    36    33    35   ar
    37    35    36   ar
    38     5     6   ar
    39     6     7   ar
    40    11    12   ar
    41    12    13   ar
    42    13     8   ar
    43     7     2   ar
    44    43    38    1
    45    36    24    1
    46    36    29   ar
    47    17    18    1
@<TRIPOS>MOLECULE
*****
 43 47 0 0 0
SMALL
GASTEIGER

@<TRIPOS>ATOM
      1 C          62.9168   84.4084   13.2305 C.3     1  UNL1        0.1139
      2 C          61.0371   86.9017    9.9901 C.ar    1  UNL1       -0.0000
      3 C          60.6432   87.1121   11.4221 C.ar    1  UNL1       -0.0003
      4 C          61.2698   86.2810   12.5022 C.ar    1  UNL1       -0.0026
      5 C          62.2903   85.2395   12.1504 C.ar    1  UNL1       -0.0029
      6 C          62.6842   85.0290   10.7185 C.ar    1  UNL1       -0.0026
      7 C          62.0577   85.8601    9.6383 C.ar    1  UNL1       -0.0003
      8 C          59.1574   89.3950    6.7497 C.ar    1  UNL1        0.0503
      9 C          59.7893   90.0600    7.9365 C.ar    1  UNL1        0.0147
     10 C          60.4159   89.2289    9.0166 C.ar    1  UNL1        0.0013
     11 C          60.4106   87.7327    8.9100 C.ar    1  UNL1        0.0001
     12 C          59.7787   87.0676    7.7232 C.ar    1  UNL1        0.0013
     13 C          59.1522   87.8987    6.6431 C.ar    1  UNL1        0.0147
     14 C          58.7525   91.9817    3.7673 C.3     1  UNL1        0.0949
     15 C          59.3790   91.1506    4.8474 C.2     1  UNL1        0.2266
     16 O          60.8537   91.2441    5.1055 O.2     1  UNL1       -0.2748
     17 N          58.5309   90.2260    5.6696 N.am    1  UNL1       -0.2839
     18 H          57.5630   90.1647    5.5003 H       1  UNL1        0.1549
     19 N          64.2543   84.7917   13.7912 N.am    1  UNL1       -0.2729
     20 C          65.4588   83.9458   13.5027 C.3     1  UNL1        0.1152
     21 C          64.3871   86.0211   14.6404 C.2     1  UNL1        0.2465
     22 O          65.7245   86.4044   15.2011 O.2     1  UNL1       -0.2730
     23 C          63.1825   86.8670   14.9290 C.3     1  UNL1        0.1835
     24 N          63.3395   88.3401   15.1648 N.am    1  UNL1       -0.2439
     25 C          63.3828   88.8750   16.5655 C.2     1  UNL1        0.2744
     26 O          63.2691   87.9369   17.7304 O.2     1  UNL1       -0.2705
     27 C          63.5399   90.3480   16.8012 C.3     1  UNL1        0.2900
     28 O          63.6536   91.2860   15.6363 O.3     1  UNL1       -0.4643
     29 C          63.6103   90.7512   14.2356 C.ar    1  UNL1        0.1525
     30 C          63.7241   91.6893   13.0707 C.ar    1  UNL1        0.0336
     31 C          63.6808   91.1544   11.6700 C.ar    1  UNL1       -0.0227
     32 C          63.7945   92.0925   10.5051 C.3     1  UNL1        0.0308
     33 C          63.5238   89.6813   11.4342 C.ar    1  UNL1       -0.0244
     34 C          63.4805   89.1464   10.0335 C.3     1  UNL1        0.0307
     35 C          63.4100   88.7432   12.5991 C.ar    1  UNL1        0.0134
     36 C          63.4533   89.2782   13.9999 C.ar    1  UNL1        0.0882
     37 C          62.2060   83.1939   13.7500 C.3     1  UNL1        0.0968
     38 N          62.3639   81.8762   13.0511 N.3     1  UNL1       -0.2667
     39 C          62.8816   81.8309   11.6439 C.3     1  UNL1        0.1047
     40 C          63.0395   80.5131   10.9449 C.3     1  UNL1        0.1595
     41 O          62.6797   79.2407   11.6531 O.3     1  UNL1       -0.3508
     42 C          62.1620   79.2860   13.0602 C.3     1  UNL1        0.1595
     43 C          62.0041   80.6038   13.7592 C.3     1  UNL1        0.1047
@<TRIPOS>BOND
     1    14    15    1
     2    15    16    2
     3    15    17   am
     4    17     8    1
     5     8     9   ar
     6     9    10   ar
     7    10    11   ar
     8    11     2    1
     9     2     3   ar
    10     3     4   ar
    11     4     5   ar
    12     5     1    1
    13     1    37    1
    14    37    38    1
    15    38    39    1
    16    39    40    1
    17    40    41    1
    18    41    42    1
    19    42    43    1
    20     1    19    1
    21    19    20    1
    22    19    21   am
    23    21    22    2
    24    21    23    1
    25    23    24    1
    26    24    25   am
    27    25    26    2
    28    25    27    1
    29    27    28    1
    30    28    29    1
    31    29    30   ar
    32    30    31   ar
    33    31    32    1
    34    31    33   ar
    35    33    34    1
    36    33    35   ar
    37    35    36   ar
    38     5     6   ar
    39     6     7   ar
    40    11    12   ar
    41    12    13   ar
    42    13     8   ar
    43     7     2   ar
    44    43    38    1
    45    36    24    1
    46    36    29   ar
    47    17    18    1
@<TRIPOS>MOLECULE
*****
 43 47 0 0 0
SMALL
GASTEIGER

@<TRIPOS>ATOM
      1 C          61.7833   86.9920   10.4627 C.3     1  UNL1        0.1139
      2 C          64.1478   90.1001   12.6984 C.ar    1  UNL1       -0.0000
      3 C          63.5679   90.4230   11.3532 C.ar    1  UNL1       -0.0003
      4 C          62.7797   89.3869   10.6080 C.ar    1  UNL1       -0.0026
      5 C          62.5714   88.0280   11.2079 C.ar    1  UNL1       -0.0029
      6 C          63.1513   87.7051   12.5531 C.ar    1  UNL1       -0.0026
      7 C          63.9395   88.7412   13.2984 C.ar    1  UNL1       -0.0003
      8 C          66.5124   93.2083   14.9340 C.ar    1  UNL1        0.0503
      9 C          66.4066   93.2780   13.4394 C.ar    1  UNL1        0.0147
     10 C          65.6183   92.2419   12.6942 C.ar    1  UNL1        0.0013
     11 C          64.9360   91.1361   13.4436 C.ar    1  UNL1        0.0001
     12 C          65.0418   91.0664   14.9383 C.ar    1  UNL1        0.0013
     13 C          65.8300   92.1025   15.6835 C.ar    1  UNL1        0.0147
     14 C          69.5865   95.2043   16.4558 C.3     1  UNL1        0.0949
     15 C          68.7984   94.1682   15.7106 C.2     1  UNL1        0.2266
     16 O          69.5079   93.0561   14.9967 O.2     1  UNL1       -0.2748
     17 N          67.3006   94.2443   15.6792 N.am    1  UNL1       -0.2839
     18 H          66.8349   94.9743   16.1478 H       1  UNL1        0.1549
     19 N          62.4703   85.7744    9.9192 N.am    1  UNL1       -0.2729
     20 C          62.3600   85.4389    8.4614 C.3     1  UNL1        0.1152
     21 C          63.2678   84.8922   10.8335 C.2     1  UNL1        0.2465
     22 O          63.9548   83.6746   10.2900 O.2     1  UNL1       -0.2730
     23 C          63.3781   85.2277   12.2914 C.3     1  UNL1        0.1835
     24 N          63.0867   84.1813   13.3259 N.am    1  UNL1       -0.2439
     25 C          62.9551   84.5694   14.7688 C.2     1  UNL1        0.2744
     26 O          63.1150   86.0038   15.1773 O.2     1  UNL1       -0.2705
     27 C          62.6637   83.5230   15.8033 C.3     1  UNL1        0.2900
     28 O          62.5038   82.0886   15.3948 O.3     1  UNL1       -0.4643
     29 C          62.6354   81.7005   13.9519 C.ar    1  UNL1        0.1525
     30 C          62.4755   80.2661   13.5435 C.ar    1  UNL1        0.0336
     31 C          62.6071   79.8780   12.1006 C.ar    1  UNL1       -0.0227
     32 C          62.4472   78.4435   11.6921 C.3     1  UNL1        0.0308
     33 C          62.8985   80.9244   11.0660 C.ar    1  UNL1       -0.0244
     34 C          63.0301   80.5363    9.6231 C.3     1  UNL1        0.0307
     35 C          63.0584   82.3588   11.4745 C.ar    1  UNL1        0.0134
     36 C          62.9268   82.7469   12.9175 C.ar    1  UNL1        0.0882
     37 C          60.3080   87.1735   10.2610 C.3     1  UNL1        0.0968
     38 N          59.7945   87.7894    8.9934 N.3     1  UNL1       -0.2667
     39 C          60.0794   89.2308    8.6909 C.3     1  UNL1        0.1047
     40 C          59.5659   89.8467    7.4232 C.3     1  UNL1        0.1595
     41 O          58.7676   89.0213    6.4581 O.3     1  UNL1       -0.3508
     42 C          58.4828   87.5801    6.7606 C.3     1  UNL1        0.1595
     43 C          58.9962   86.9641    8.0282 C.3     1  UNL1        0.1047
@<TRIPOS>BOND
     1    14    15    1
     2    15    16    2
     3    15    17   am
     4    17     8    1
     5     8     9   ar
     6     9    10   ar
     7    10    11   ar
     8    11     2    1
     9     2     3   ar
    10     3     4   ar
    11     4     5   ar
    12     5     1    1
    13     1    37    1
    14    37    38    1
    15    38    39    1
    16    39    40    1
    17    40    41    1
    18    41    42    1
    19    42    43    1
    20     1    19    1
    21    19    20    1
    22    19    21   am
    23    21    22    2
    24    21    23    1
    25    23    24    1
    26    24    25   am
    27    25    26    2
    28    25    27    1
    29    27    28    1
    30    28    29    1
    31    29    30   ar
    32    30    31   ar
    33    31    32    1
    34    31    33   ar
    35    33    34    1
    36    33    35   ar
    37    35    36   ar
    38     5     6   ar
    39     6     7   ar
    40    11    12   ar
    41    12    13   ar
    42    13     8   ar
    43     7     2   ar
    44    43    38    1
    45    36    24    1
    46    36    29   ar
    47    17    18    1
@<TRIPOS>MOLECULE
*****
 43 47 0 0 0
SMALL
GASTEIGER

@<TRIPOS>ATOM
      1 C          63.6167   89.7376   14.1737 C.3     1  UNL1        0.1139
      2 C          63.3584   85.3378   13.2655 C.ar    1  UNL1       -0.0000
      3 C          62.7870   86.3370   12.3036 C.ar    1  UNL1       -0.0003
      4 C          62.8731   87.8036   12.6063 C.ar    1  UNL1       -0.0026
      5 C          63.5306   88.2710   13.8709 C.ar    1  UNL1       -0.0029
      6 C          64.1020   87.2719   14.8328 C.ar    1  UNL1       -0.0026
      7 C          64.0159   85.8052   14.5301 C.ar    1  UNL1       -0.0003
      8 C          63.1001   80.9380   12.3572 C.ar    1  UNL1        0.0503
      9 C          62.4304   81.4920   13.5797 C.ar    1  UNL1        0.0147
     10 C          62.5165   82.9587   13.8825 C.ar    1  UNL1        0.0013
     11 C          63.2723   83.8712   12.9627 C.ar    1  UNL1        0.0001
     12 C          63.9420   83.3172   11.7402 C.ar    1  UNL1        0.0013
     13 C          63.8559   81.8506   11.4374 C.ar    1  UNL1        0.0147
     14 C          62.7686   77.5396   10.3345 C.3     1  UNL1        0.0949
     15 C          62.8547   79.0062   10.6373 C.2     1  UNL1        0.2266
     16 O          62.7816   80.0076    9.5229 O.2     1  UNL1       -0.2748
     17 N          63.0140   79.4714   12.0545 N.am    1  UNL1       -0.2839
     18 H          63.0619   78.8141   12.7859 H       1  UNL1        0.1549
     19 N          63.7148   90.2054   15.5955 N.am    1  UNL1       -0.2729
     20 C          63.1259   89.3783   16.6995 C.3     1  UNL1        0.1152
     21 C          64.4018   91.5005   15.9132 C.2     1  UNL1        0.2465
     22 O          64.4999   91.9683   17.3350 O.2     1  UNL1       -0.2730
     23 C          64.9907   92.3276   14.8092 C.3     1  UNL1        0.1835
     24 N          66.4659   92.2797   14.5411 N.am    1  UNL1       -0.2439
     25 C          67.4347   92.2265   15.6850 C.2     1  UNL1        0.2744
     26 O          66.9284   92.2211   17.0970 O.2     1  UNL1       -0.2705
     27 C          68.9097   92.1786   15.4170 C.3     1  UNL1        0.2900
     28 O          69.4159   92.1839   14.0050 O.3     1  UNL1       -0.4643
     29 C          68.4472   92.2372   12.8611 C.ar    1  UNL1        0.1525
     30 C          68.9534   92.2426   11.4491 C.ar    1  UNL1        0.0336
     31 C          67.9846   92.2959   10.3052 C.ar    1  UNL1       -0.0227
     32 C          68.4909   92.3012    8.8932 C.3     1  UNL1        0.0308
     33 C          66.5095   92.3438   10.5733 C.ar    1  UNL1       -0.0244
     34 C          65.5407   92.3970    9.4294 C.3     1  UNL1        0.0307
     35 C          66.0032   92.3384   11.9852 C.ar    1  UNL1        0.0134
     36 C          66.9721   92.2851   13.1292 C.ar    1  UNL1        0.0882
     37 C          63.6047   90.7364   13.0546 C.3     1  UNL1        0.0968
     38 N          62.6252   90.5889   11.9282 N.3     1  UNL1       -0.2667
     39 C          61.1523   90.5759   12.2119 C.3     1  UNL1        0.1047
     40 C          60.1728   90.4284   11.0855 C.3     1  UNL1        0.1595
     41 O          60.6662   90.2940    9.6753 O.3     1  UNL1       -0.3508
     42 C          62.1391   90.3071    9.3916 C.3     1  UNL1        0.1595
     43 C          63.1186   90.4545   10.5181 C.3     1  UNL1        0.1047
@<TRIPOS>BOND
     1    14    15    1
     2    15    16    2
     3    15    17   am
     4    17     8    1
     5     8     9   ar
     6     9    10   ar
     7    10    11   ar
     8    11     2    1
     9     2     3   ar
    10     3     4   ar
    11     4     5   ar
    12     5     1    1
    13     1    37    1
    14    37    38    1
    15    38    39    1
    16    39    40    1
    17    40    41    1
    18    41    42    1
    19    42    43    1
    20     1    19    1
    21    19    20    1
    22    19    21   am
    23    21    22    2
    24    21    23    1
    25    23    24    1
    26    24    25   am
    27    25    26    2
    28    25    27    1
    29    27    28    1
    30    28    29    1
    31    29    30   ar
    32    30    31   ar
    33    31    32    1
    34    31    33   ar
    35    33    34    1
    36    33    35   ar
    37    35    36   ar
    38     5     6   ar
    39     6     7   ar
    40    11    12   ar
    41    12    13   ar
    42    13     8   ar
    43     7     2   ar
    44    43    38    1
    45    36    24    1
    46    36    29   ar
    47    17    18    1
@<TRIPOS>MOLECULE
*****
 43 47 0 0 0
SMALL
GASTEIGER

@<TRIPOS>ATOM
      1 C          60.0142   88.1565    9.8696 C.3     1  UNL1        0.1139
      2 C          60.3732   90.5142    6.0536 C.ar    1  UNL1       -0.0000
      3 C          59.3211   89.4529    6.1833 C.ar    1  UNL1       -0.0003
      4 C          59.2015   88.6670    7.4553 C.ar    1  UNL1       -0.0026
      5 C          60.1339   88.9424    8.5976 C.ar    1  UNL1       -0.0029
      6 C          61.1859   90.0036    8.4679 C.ar    1  UNL1       -0.0026
      7 C          61.3056   90.7896    7.1959 C.ar    1  UNL1       -0.0003
      8 C          60.7322   92.8720    2.2376 C.ar    1  UNL1        0.0503
      9 C          61.9142   92.1136    2.7646 C.ar    1  UNL1        0.0147
     10 C          61.7945   91.3276    4.0367 C.ar    1  UNL1        0.0013
     11 C          60.4929   91.3001    4.7816 C.ar    1  UNL1        0.0001
     12 C          59.3109   92.0586    4.2546 C.ar    1  UNL1        0.0013
     13 C          59.4306   92.8445    2.9826 C.ar    1  UNL1        0.0147
     14 C          60.5064   93.8486   -1.6024 C.3     1  UNL1        0.0949
     15 C          60.3867   93.0627   -0.3304 C.2     1  UNL1        0.2266
     16 O          59.8019   91.6816   -0.3543 O.2     1  UNL1       -0.2748
     17 N          60.8519   93.6579    0.9656 N.am    1  UNL1       -0.2839
     18 H          61.2357   94.5644    0.9813 H       1  UNL1        0.1549
     19 N          59.8255   88.8685   11.1762 N.am    1  UNL1       -0.2729
     20 C          58.4862   89.4438   11.5302 C.3     1  UNL1        0.1152
     21 C          60.9761   89.0053   12.1289 C.2     1  UNL1        0.2465
     22 O          60.7873   89.7173   13.4356 O.2     1  UNL1       -0.2730
     23 C          62.3153   88.4299   11.7749 C.3     1  UNL1        0.1835
     24 N          63.2408   87.9620   12.8587 N.am    1  UNL1       -0.2439
     25 C          63.9482   88.9619   13.7244 C.2     1  UNL1        0.2744
     26 O          63.7302   90.4299   13.5065 O.2     1  UNL1       -0.2705
     27 C          64.8736   88.4940   14.8082 C.3     1  UNL1        0.2900
     28 O          65.0917   87.0260   15.0262 O.3     1  UNL1       -0.4643
     29 C          64.3843   86.0260   14.1604 C.ar    1  UNL1        0.1525
     30 C          64.6023   84.5580   14.3784 C.ar    1  UNL1        0.0336
     31 C          63.8949   83.5580   13.5127 C.ar    1  UNL1       -0.0227
     32 C          64.1129   82.0901   13.7307 C.3     1  UNL1        0.0308
     33 C          62.9694   84.0260   12.4289 C.ar    1  UNL1       -0.0244
     34 C          62.2620   83.0260   11.5631 C.3     1  UNL1        0.0307
     35 C          62.7514   85.4940   12.2109 C.ar    1  UNL1        0.0134
     36 C          63.4588   86.4940   13.0767 C.ar    1  UNL1        0.0882
     37 C          60.0833   86.6584    9.8350 C.3     1  UNL1        0.0968
     38 N          60.9466   85.9707    8.8192 N.3     1  UNL1       -0.2667
     39 C          62.4075   85.7663    9.0916 C.3     1  UNL1        0.1047
     40 C          63.2708   85.0786    8.0759 C.3     1  UNL1        0.1595
     41 O          62.6732   84.5953    6.7876 O.3     1  UNL1       -0.3508
     42 C          61.2124   84.7998    6.5152 C.3     1  UNL1        0.1595
     43 C          60.3491   85.4875    7.5310 C.3     1  UNL1        0.1047
@<TRIPOS>BOND
     1    14    15    1
     2    15    16    2
     3    15    17   am
     4    17     8    1
     5     8     9   ar
     6     9    10   ar
     7    10    11   ar
     8    11     2    1
     9     2     3   ar
    10     3     4   ar
    11     4     5   ar
    12     5     1    1
    13     1    37    1
    14    37    38    1
    15    38    39    1
    16    39    40    1
    17    40    41    1
    18    41    42    1
    19    42    43    1
    20     1    19    1
    21    19    20    1
    22    19    21   am
    23    21    22    2
    24    21    23    1
    25    23    24    1
    26    24    25   am
    27    25    26    2
    28    25    27    1
    29    27    28    1
    30    28    29    1
    31    29    30   ar
    32    30    31   ar
    33    31    32    1
    34    31    33   ar
    35    33    34    1
    36    33    35   ar
    37    35    36   ar
    38     5     6   ar
    39     6     7   ar
    40    11    12   ar
    41    12    13   ar
    42    13     8   ar
    43     7     2   ar
    44    43    38    1
    45    36    24    1
    46    36    29   ar
    47    17    18    1
@<TRIPOS>MOLECULE
*****
 43 47 0 0 0
SMALL
GASTEIGER

@<TRIPOS>ATOM
      1 C          64.0407   89.9941   13.5316 C.3     1  UNL1        0.1139
      2 C          63.4811   85.5642   12.9728 C.ar    1  UNL1       -0.0000
      3 C          64.1978   86.0828   14.1842 C.ar    1  UNL1       -0.0003
      4 C          64.3843   87.5594   14.3705 C.ar    1  UNL1       -0.0026
      5 C          63.8542   88.5175   13.3453 C.ar    1  UNL1       -0.0029
      6 C          63.1375   87.9990   12.1339 C.ar    1  UNL1       -0.0026
      7 C          62.9510   86.5223   11.9476 C.ar    1  UNL1       -0.0003
      8 C          62.9216   81.1342   12.4141 C.ar    1  UNL1        0.0503
      9 C          62.9422   81.7193   13.7951 C.ar    1  UNL1        0.0147
     10 C          63.1287   83.1960   13.9813 C.ar    1  UNL1        0.0013
     11 C          63.2946   84.0876   12.7865 C.ar    1  UNL1        0.0001
     12 C          63.2741   83.5025   11.4055 C.ar    1  UNL1        0.0013
     13 C          63.0876   82.0258   11.2192 C.ar    1  UNL1        0.0147
     14 C          62.5769   77.5893   10.6634 C.3     1  UNL1        0.0949
     15 C          62.7634   79.0659   10.8497 C.2     1  UNL1        0.2266
     16 O          62.9781   79.9510    9.6578 O.2     1  UNL1       -0.2748
     17 N          62.7351   79.6576   12.2278 N.am    1  UNL1       -0.2839
     18 H          62.5942   79.0767   13.0101 H       1  UNL1        0.1549
     19 N          64.6614   90.5186   14.7924 N.am    1  UNL1       -0.2729
     20 C          63.9984   90.2697   16.1146 C.3     1  UNL1        0.1152
     21 C          65.9452   91.2920   14.7309 C.2     1  UNL1        0.2465
     22 O          66.5660   91.8164   15.9917 O.2     1  UNL1       -0.2730
     23 C          66.6083   91.5409   13.4087 C.3     1  UNL1        0.1835
     24 N          66.6437   92.9271   12.8365 N.am    1  UNL1       -0.2439
     25 C          66.2028   94.0939   13.6697 C.2     1  UNL1        0.2744
     26 O          65.7266   93.8745   15.0751 O.2     1  UNL1       -0.2705
     27 C          66.2382   95.4800   13.0976 C.3     1  UNL1        0.2900
     28 O          66.7145   95.6993   11.6922 O.3     1  UNL1       -0.4643
     29 C          67.1553   94.5326   10.8590 C.ar    1  UNL1        0.1525
     30 C          67.6316   94.7519    9.4536 C.ar    1  UNL1        0.0336
     31 C          68.0724   93.5852    8.6204 C.ar    1  UNL1       -0.0227
     32 C          68.5487   93.8045    7.2150 C.3     1  UNL1        0.0308
     33 C          68.0370   92.1990    9.1925 C.ar    1  UNL1       -0.0244
     34 C          68.4779   91.0322    8.3593 C.3     1  UNL1        0.0307
     35 C          67.5608   91.9796   10.5979 C.ar    1  UNL1        0.0134
     36 C          67.1199   93.1465   11.4311 C.ar    1  UNL1        0.0882
     37 C          63.6064   90.9464   12.4570 C.3     1  UNL1        0.0968
     38 N          62.3983   90.6365   11.6236 N.3     1  UNL1       -0.2667
     39 C          61.0575   90.4769   12.2769 C.3     1  UNL1        0.1047
     40 C          59.8494   90.1669   11.4435 C.3     1  UNL1        0.1595
     41 O          59.9822   90.0167    9.9569 O.3     1  UNL1       -0.3508
     42 C          61.3230   90.1764    9.3038 C.3     1  UNL1        0.1595
     43 C          62.5311   90.4863   10.1371 C.3     1  UNL1        0.1047
@<TRIPOS>BOND
     1    14    15    1
     2    15    16    2
     3    15    17   am
     4    17     8    1
     5     8     9   ar
     6     9    10   ar
     7    10    11   ar
     8    11     2    1
     9     2     3   ar
    10     3     4   ar
    11     4     5   ar
    12     5     1    1
    13     1    37    1
    14    37    38    1
    15    38    39    1
    16    39    40    1
    17    40    41    1
    18    41    42    1
    19    42    43    1
    20     1    19    1
    21    19    20    1
    22    19    21   am
    23    21    22    2
    24    21    23    1
    25    23    24    1
    26    24    25   am
    27    25    26    2
    28    25    27    1
    29    27    28    1
    30    28    29    1
    31    29    30   ar
    32    30    31   ar
    33    31    32    1
    34    31    33   ar
    35    33    34    1
    36    33    35   ar
    37    35    36   ar
    38     5     6   ar
    39     6     7   ar
    40    11    12   ar
    41    12    13   ar
    42    13     8   ar
    43     7     2   ar
    44    43    38    1
    45    36    24    1
    46    36    29   ar
    47    17    18    1
@<TRIPOS>MOLECULE
*****
 43 47 0 0 0
SMALL
GASTEIGER

@<TRIPOS>ATOM
      1 C          61.6792   87.0178   10.1799 C.3     1  UNL1        0.1139
      2 C          64.0745   90.1373   12.3664 C.ar    1  UNL1       -0.0000
      3 C          63.7639   88.8285   13.0303 C.ar    1  UNL1       -0.0003
      4 C          62.9654   87.7887   12.3015 C.ar    1  UNL1       -0.0026
      5 C          62.4776   88.0576   10.9087 C.ar    1  UNL1       -0.0029
      6 C          62.7883   89.3663   10.2448 C.ar    1  UNL1       -0.0026
      7 C          63.5867   90.4062   10.9736 C.ar    1  UNL1       -0.0003
      8 C          66.4698   93.2568   14.5530 C.ar    1  UNL1        0.0503
      9 C          65.9049   92.0851   15.3000 C.ar    1  UNL1        0.0147
     10 C          65.1064   91.0452   14.5711 C.ar    1  UNL1        0.0013
     11 C          64.8730   91.1771   13.0953 C.ar    1  UNL1        0.0001
     12 C          65.4379   92.3488   12.3483 C.ar    1  UNL1        0.0013
     13 C          66.2364   93.3886   13.0771 C.ar    1  UNL1        0.0147
     14 C          69.4662   95.0314   16.4563 C.3     1  UNL1        0.0949
     15 C          68.6678   93.9916   15.7274 C.2     1  UNL1        0.2266
     16 O          69.2688   92.6468   15.4440 O.2     1  UNL1       -0.2748
     17 N          67.2683   94.2966   15.2819 N.am    1  UNL1       -0.2839
     18 H          66.8738   95.1792   15.4679 H       1  UNL1        0.1549
     19 N          62.3520   85.7796    9.6657 N.am    1  UNL1       -0.2729
     20 C          62.1511   85.3532    8.2417 C.3     1  UNL1        0.1152
     21 C          63.2257   84.9679   10.5756 C.2     1  UNL1        0.2465
     22 O          63.8985   83.7298   10.0615 O.2     1  UNL1       -0.2730
     23 C          63.4265   85.3944   11.9996 C.3     1  UNL1        0.1835
     24 N          63.0366   84.4760   13.1197 N.am    1  UNL1       -0.2439
     25 C          62.7155   83.0389   12.8340 C.2     1  UNL1        0.2744
     26 O          62.7843   82.5201   11.4283 O.2     1  UNL1       -0.2705
     27 C          62.3255   82.1206   13.9541 C.3     1  UNL1        0.2900
     28 O          62.2567   82.6394   15.3599 O.3     1  UNL1       -0.4643
     29 C          62.5778   84.0765   15.6455 C.ar    1  UNL1        0.1525
     30 C          62.5090   84.5952   17.0513 C.ar    1  UNL1        0.0336
     31 C          62.8301   86.0323   17.3370 C.ar    1  UNL1       -0.0227
     32 C          62.7613   86.5511   18.7427 C.3     1  UNL1        0.0308
     33 C          63.2201   86.9507   16.2169 C.ar    1  UNL1       -0.0244
     34 C          63.5412   88.3878   16.5025 C.3     1  UNL1        0.0307
     35 C          63.2889   86.4319   14.8111 C.ar    1  UNL1        0.0134
     36 C          62.9677   84.9948   14.5255 C.ar    1  UNL1        0.0882
     37 C          60.2079   87.2161    9.9651 C.3     1  UNL1        0.0968
     38 N          59.7187   87.9372    8.7442 N.3     1  UNL1       -0.2667
     39 C          60.1218   89.3617    8.5025 C.3     1  UNL1        0.1047
     40 C          59.6325   90.0828    7.2816 C.3     1  UNL1        0.1595
     41 O          58.7402   89.3793    6.3023 O.3     1  UNL1       -0.3508
     42 C          58.3372   87.9548    6.5439 C.3     1  UNL1        0.1595
     43 C          58.8264   87.2338    7.7649 C.3     1  UNL1        0.1047
@<TRIPOS>BOND
     1    14    15    1
     2    15    16    2
     3    15    17   am
     4    17     8    1
     5     8     9   ar
     6     9    10   ar
     7    10    11   ar
     8    11     2    1
     9     2     3   ar
    10     3     4   ar
    11     4     5   ar
    12     5     1    1
    13     1    37    1
    14    37    38    1
    15    38    39    1
    16    39    40    1
    17    40    41    1
    18    41    42    1
    19    42    43    1
    20     1    19    1
    21    19    20    1
    22    19    21   am
    23    21    22    2
    24    21    23    1
    25    23    24    1
    26    24    25   am
    27    25    26    2
    28    25    27    1
    29    27    28    1
    30    28    29    1
    31    29    30   ar
    32    30    31   ar
    33    31    32    1
    34    31    33   ar
    35    33    34    1
    36    33    35   ar
    37    35    36   ar
    38     5     6   ar
    39     6     7   ar
    40    11    12   ar
    41    12    13   ar
    42    13     8   ar
    43     7     2   ar
    44    43    38    1
    45    36    24    1
    46    36    29   ar
    47    17    18    1
