@<TRIPOS>MOLECULE
*****
 26 29 0 0 0
SMALL
GASTEIGER

@<TRIPOS>ATOM
      1 C          62.0238   90.2387    9.3347 C.3     1  UNL1        0.0472
      2 C          62.8686   90.6259   10.5122 C.2     1  UNL1        0.0323
      3 C          62.7823   89.8412   11.7876 C.2     1  UNL1        0.0891
      4 C          63.6271   90.2285   12.9651 C.3     1  UNL1        0.1610
      5 N          64.5582   91.4004   12.8671 N.ar    1  UNL1       -0.2918
      6 C          64.6445   92.1851   11.5917 C.ar    1  UNL1        0.2019
      7 N          65.6463   93.2836   11.7903 N.ar    1  UNL1       -0.2135
      8 C          66.1791   93.1779   13.1885 C.ar    1  UNL1        0.0999
      9 C          67.1898   93.9911   13.9416 C.ar    1  UNL1        0.0207
     10 C          67.5279   93.6404   15.3603 C.ar    1  UNL1        0.0016
     11 C          66.8554   92.4764   16.0258 C.ar    1  UNL1        0.0016
     12 C          65.8447   91.6632   15.2727 C.ar    1  UNL1        0.0188
     13 C          65.5066   92.0140   13.8540 C.ar    1  UNL1        0.0804
     14 N          63.7997   91.7978   10.4142 N.pl3   1  UNL1       -0.2873
     15 H          63.8564   92.3129    9.5771 H       1  UNL1        0.1547
     16 C          63.5407   89.4437   14.2406 C.ar    1  UNL1        0.1249
     17 C          64.2421   88.1494   14.5287 C.ar    1  UNL1        0.1985
     18 O          63.8726   87.7214   15.9180 O.2     1  UNL1       -0.4282
     19 C          62.9429   88.7510   16.4886 C.ar    1  UNL1        0.2849
     20 N          62.7378   89.8155   15.4519 N.ar    1  UNL1       -0.2063
     21 C          61.8511   88.6692   11.8856 C.2     1  UNL1        0.3401
     22 O          60.3745   88.8942   12.0240 O.2     1  UNL1       -0.2451
     23 O          62.3966   87.2725   11.8453 O.3     1  UNL1       -0.4494
     24 C          61.9440   86.3212   10.7776 C.3     1  UNL1        0.1694
     25 C          61.0123   86.7912    9.7001 C.3     1  UNL1        0.0473
     26 C          62.4231   84.8998   10.7874 C.3     1  UNL1        0.0473
@<TRIPOS>BOND
     1     1     2    1
     2     2     3    2
     3     3    21    1
     4    21    22    2
     5    21    23    1
     6    23    24    1
     7    24    25    1
     8    24    26    1
     9     3     4    1
    10     4    16    1
    11    16    17   ar
    12    17    18   ar
    13    18    19   ar
    14    19    20   ar
    15     4     5    1
    16     5     6   ar
    17     6     7   ar
    18     7     8   ar
    19     8     9   ar
    20     9    10   ar
    21    10    11   ar
    22    11    12   ar
    23    12    13   ar
    24     6    14    1
    25    14     2    1
    26    20    16   ar
    27    13     5   ar
    28    13     8   ar
    29    14    15    1
@<TRIPOS>MOLECULE
*****
 26 29 0 0 0
SMALL
GASTEIGER

@<TRIPOS>ATOM
      1 C          66.4084   93.8061   12.5725 C.3     1  UNL1        0.0472
      2 C          65.4027   92.7150   12.3529 C.2     1  UNL1        0.0323
      3 C          65.0958   91.7449   13.4550 C.2     1  UNL1        0.0891
      4 C          64.0901   90.6538   13.2354 C.3     1  UNL1        0.1610
      5 N          63.3914   90.5328   11.9136 N.ar    1  UNL1       -0.2918
      6 C          63.6984   91.5029   10.8114 C.ar    1  UNL1        0.2019
      7 N          62.8573   91.1371    9.6245 N.ar    1  UNL1       -0.2135
      8 C          62.0306   89.9410    9.9930 C.ar    1  UNL1        0.0999
      9 C          61.0199   89.1436    9.2232 C.ar    1  UNL1        0.0207
     10 C          60.3393   87.9728    9.8681 C.ar    1  UNL1        0.0016
     11 C          60.6694   87.5994   11.2829 C.ar    1  UNL1        0.0016
     12 C          61.6801   88.3967   12.0527 C.ar    1  UNL1        0.0188
     13 C          62.3607   89.5675   11.4078 C.ar    1  UNL1        0.0804
     14 N          64.7040   92.5940   11.0311 N.pl3   1  UNL1       -0.2873
     15 H          64.9055   93.2307   10.3077 H       1  UNL1        0.1547
     16 C          63.7832   89.6837   14.3376 C.ar    1  UNL1        0.1249
     17 C          64.3587   88.3064   14.4855 C.ar    1  UNL1        0.1985
     18 O          63.7780   87.6922   15.7247 O.2     1  UNL1       -0.4282
     19 C          62.8438   88.6898   16.3426 C.ar    1  UNL1        0.2849
     20 N          62.8470   89.9207   15.4853 N.ar    1  UNL1       -0.2063
     21 C          65.7945   91.8659   14.7769 C.2     1  UNL1        0.3401
     22 O          65.1176   92.5586   15.9223 O.2     1  UNL1       -0.2451
     23 O          67.1701   91.2942   14.9532 O.3     1  UNL1       -0.4494
     24 C          68.3684   92.1951   14.9056 C.3     1  UNL1        0.1694
     25 C          68.5503   93.2570   15.9492 C.3     1  UNL1        0.0473
     26 C          69.3850   92.0341   13.8144 C.3     1  UNL1        0.0473
@<TRIPOS>BOND
     1     1     2    1
     2     2     3    2
     3     3    21    1
     4    21    22    2
     5    21    23    1
     6    23    24    1
     7    24    25    1
     8    24    26    1
     9     3     4    1
    10     4    16    1
    11    16    17   ar
    12    17    18   ar
    13    18    19   ar
    14    19    20   ar
    15     4     5    1
    16     5     6   ar
    17     6     7   ar
    18     7     8   ar
    19     8     9   ar
    20     9    10   ar
    21    10    11   ar
    22    11    12   ar
    23    12    13   ar
    24     6    14    1
    25    14     2    1
    26    20    16   ar
    27    13     5   ar
    28    13     8   ar
    29    14    15    1
@<TRIPOS>MOLECULE
*****
 26 29 0 0 0
SMALL
GASTEIGER

@<TRIPOS>ATOM
      1 C          64.2020   89.8958   14.2143 C.3     1  UNL1        0.0472
      2 C          63.9223   88.4941   13.7595 C.2     1  UNL1        0.0323
      3 C          63.1750   88.2555   12.4809 C.2     1  UNL1        0.0891
      4 C          62.8952   86.8537   12.0261 C.3     1  UNL1        0.1610
      5 N          63.3627   85.6906   12.8497 N.ar    1  UNL1       -0.2918
      6 C          64.1100   85.9291   14.1283 C.ar    1  UNL1        0.2019
      7 N          64.4440   84.5945   14.7258 N.ar    1  UNL1       -0.2135
      8 C          63.9032   83.5310   13.8166 C.ar    1  UNL1        0.0999
      9 C          63.9329   82.0334   13.8948 C.ar    1  UNL1        0.0207
     10 C          63.2943   81.2132   12.8134 C.ar    1  UNL1        0.0016
     11 C          62.6260   81.8906   11.6539 C.ar    1  UNL1        0.0016
     12 C          62.5963   83.3883   11.5757 C.ar    1  UNL1        0.0188
     13 C          63.2349   84.2085   12.6571 C.ar    1  UNL1        0.0804
     14 N          64.3898   87.3309   14.5831 N.pl3   1  UNL1       -0.2873
     15 H          64.8802   87.4875   15.4223 H       1  UNL1        0.1547
     16 C          62.1479   86.6152   10.7475 C.ar    1  UNL1        0.1249
     17 C          62.7570   86.2621    9.4229 C.ar    1  UNL1        0.1985
     18 O          61.6458   86.1166    8.4259 O.2     1  UNL1       -0.4282
     19 C          60.3500   86.3797    9.1341 C.ar    1  UNL1        0.2849
     20 N          60.6603   86.6879   10.5690 N.ar    1  UNL1       -0.2063
     21 C          62.7074   89.4187   11.6572 C.2     1  UNL1        0.3401
     22 O          63.4327   89.7842   10.3961 O.2     1  UNL1       -0.2451
     23 O          61.5147   90.2163   12.0946 O.3     1  UNL1       -0.4494
     24 C          60.1711   89.9537   11.4816 C.3     1  UNL1        0.1694
     25 C          59.0323   89.4906   12.3409 C.3     1  UNL1        0.0473
     26 C          59.9664   90.1543   10.0092 C.3     1  UNL1        0.0473
@<TRIPOS>BOND
     1     1     2    1
     2     2     3    2
     3     3    21    1
     4    21    22    2
     5    21    23    1
     6    23    24    1
     7    24    25    1
     8    24    26    1
     9     3     4    1
    10     4    16    1
    11    16    17   ar
    12    17    18   ar
    13    18    19   ar
    14    19    20   ar
    15     4     5    1
    16     5     6   ar
    17     6     7   ar
    18     7     8   ar
    19     8     9   ar
    20     9    10   ar
    21    10    11   ar
    22    11    12   ar
    23    12    13   ar
    24     6    14    1
    25    14     2    1
    26    20    16   ar
    27    13     5   ar
    28    13     8   ar
    29    14    15    1
@<TRIPOS>MOLECULE
*****
 26 29 0 0 0
SMALL
GASTEIGER

@<TRIPOS>ATOM
      1 C          64.1387   83.3706   14.8681 C.3     1  UNL1        0.0472
      2 C          63.8560   84.6081   14.0689 C.2     1  UNL1        0.0323
      3 C          63.3040   84.4935   12.6789 C.2     1  UNL1        0.0891
      4 C          63.0213   85.7310   11.8797 C.3     1  UNL1        0.1610
      5 N          63.2906   87.0831   12.4706 N.ar    1  UNL1       -0.2918
      6 C          63.8425   87.1978   13.8606 C.ar    1  UNL1        0.2019
      7 N          64.0057   88.6552   14.1758 N.ar    1  UNL1       -0.2135
      8 C          63.5546   89.4413   12.9805 C.ar    1  UNL1        0.0999
      9 C          63.4892   90.9162   12.7156 C.ar    1  UNL1        0.0207
     10 C          62.9818   91.4196   11.3969 C.ar    1  UNL1        0.0016
     11 C          62.5398   90.4480   10.3430 C.ar    1  UNL1        0.0016
     12 C          62.6052   88.9730   10.6079 C.ar    1  UNL1        0.0188
     13 C          63.1126   88.4697   11.9266 C.ar    1  UNL1        0.0804
     14 N          64.1252   85.9603   14.6598 N.pl3   1  UNL1       -0.2873
     15 H          64.4875   86.0355   15.5721 H       1  UNL1        0.1547
     16 C          62.4693   85.6163   10.4896 C.ar    1  UNL1        0.1249
     17 C          61.0647   85.9336   10.0698 C.ar    1  UNL1        0.1985
     18 O          60.9524   85.6775    8.5961 O.2     1  UNL1       -0.4282
     19 C          62.2876   85.2020    8.1051 C.ar    1  UNL1        0.2849
     20 N          63.2252   85.1641    9.2754 N.ar    1  UNL1       -0.2063
     21 C          63.0347   83.1412   12.0880 C.2     1  UNL1        0.3401
     22 O          64.0276   82.5217   11.1496 O.2     1  UNL1       -0.2451
     23 O          61.7727   82.4087   12.4354 O.3     1  UNL1       -0.4494
     24 C          61.8288   81.1910   13.3095 C.3     1  UNL1        0.1694
     25 C          60.6293   80.7912   14.1165 C.3     1  UNL1        0.0473
     26 C          63.0844   80.3731   13.3767 C.3     1  UNL1        0.0473
@<TRIPOS>BOND
     1     1     2    1
     2     2     3    2
     3     3    21    1
     4    21    22    2
     5    21    23    1
     6    23    24    1
     7    24    25    1
     8    24    26    1
     9     3     4    1
    10     4    16    1
    11    16    17   ar
    12    17    18   ar
    13    18    19   ar
    14    19    20   ar
    15     4     5    1
    16     5     6   ar
    17     6     7   ar
    18     7     8   ar
    19     8     9   ar
    20     9    10   ar
    21    10    11   ar
    22    11    12   ar
    23    12    13   ar
    24     6    14    1
    25    14     2    1
    26    20    16   ar
    27    13     5   ar
    28    13     8   ar
    29    14    15    1
@<TRIPOS>MOLECULE
*****
 26 29 0 0 0
SMALL
GASTEIGER

@<TRIPOS>ATOM
      1 C          64.5994   88.8944   14.9292 C.3     1  UNL1        0.0472
      2 C          63.8328   88.3842   13.7451 C.2     1  UNL1        0.0323
      3 C          63.7778   86.9116   13.4651 C.2     1  UNL1        0.0891
      4 C          63.0112   86.4014   12.2810 C.3     1  UNL1        0.1610
      5 N          62.2997   87.3637   11.3769 N.ar    1  UNL1       -0.2918
      6 C          62.3547   88.8364   11.6568 C.ar    1  UNL1        0.2019
      7 N          61.5601   89.5397   10.5967 N.ar    1  UNL1       -0.2135
      8 C          61.0140   88.5018    9.6615 C.ar    1  UNL1        0.0999
      9 C          60.1596   88.6075    8.4332 C.ar    1  UNL1        0.0207
     10 C          59.7622   87.3684    7.6872 C.ar    1  UNL1        0.0016
     11 C          60.2193   86.0236    8.1694 C.ar    1  UNL1        0.0016
     12 C          61.0737   85.9178    9.3977 C.ar    1  UNL1        0.0188
     13 C          61.4711   87.1569   10.1437 C.ar    1  UNL1        0.0804
     14 N          63.1213   89.3466   12.8409 N.pl3   1  UNL1       -0.2873
     15 H          63.1574   90.3131   13.0247 H       1  UNL1        0.1547
     16 C          62.9562   84.9287   12.0011 C.ar    1  UNL1        0.1249
     17 C          63.5907   84.2283   10.8362 C.ar    1  UNL1        0.1985
     18 O          63.2836   82.7647   10.9522 O.2     1  UNL1       -0.4282
     19 C          62.4594   82.5604   12.1887 C.ar    1  UNL1        0.2849
     20 N          62.2570   83.8979   12.8370 N.ar    1  UNL1       -0.2063
     21 C          64.4893   85.9491   14.3693 C.2     1  UNL1        0.3401
     22 O          65.3264   84.8502   13.7849 O.2     1  UNL1       -0.2451
     23 O          64.3637   86.0856   15.8578 O.3     1  UNL1       -0.4494
     24 C          63.0815   85.7103   16.5398 C.3     1  UNL1        0.1694
     25 C          62.2604   84.5689   16.0175 C.3     1  UNL1        0.0473
     26 C          62.6203   86.4766   17.7440 C.3     1  UNL1        0.0473
@<TRIPOS>BOND
     1     1     2    1
     2     2     3    2
     3     3    21    1
     4    21    22    2
     5    21    23    1
     6    23    24    1
     7    24    25    1
     8    24    26    1
     9     3     4    1
    10     4    16    1
    11    16    17   ar
    12    17    18   ar
    13    18    19   ar
    14    19    20   ar
    15     4     5    1
    16     5     6   ar
    17     6     7   ar
    18     7     8   ar
    19     8     9   ar
    20     9    10   ar
    21    10    11   ar
    22    11    12   ar
    23    12    13   ar
    24     6    14    1
    25    14     2    1
    26    20    16   ar
    27    13     5   ar
    28    13     8   ar
    29    14    15    1
@<TRIPOS>MOLECULE
*****
 26 29 0 0 0
SMALL
GASTEIGER

@<TRIPOS>ATOM
      1 C          64.2479   89.3367   14.7743 C.3     1  UNL1        0.0472
      2 C          63.9519   87.9814   14.2038 C.2     1  UNL1        0.0323
      3 C          63.2137   87.8598   12.9037 C.2     1  UNL1        0.0891
      4 C          62.9177   86.5044   12.3332 C.3     1  UNL1        0.1610
      5 N          63.3599   85.2707   13.0627 N.ar    1  UNL1       -0.2918
      6 C          64.0981   85.3923   14.3629 C.ar    1  UNL1        0.2019
      7 N          64.4065   84.0082   14.8519 N.ar    1  UNL1       -0.2135
      8 C          63.8589   83.0312   13.8541 C.ar    1  UNL1        0.0999
      9 C          63.8657   81.5319   13.8096 C.ar    1  UNL1        0.0207
     10 C          63.2256   80.8129   12.6592 C.ar    1  UNL1        0.0016
     11 C          62.5788   81.5932   11.5534 C.ar    1  UNL1        0.0016
     12 C          62.5720   83.0925   11.5980 C.ar    1  UNL1        0.0188
     13 C          63.2121   83.8115   12.7483 C.ar    1  UNL1        0.0804
     14 N          64.3941   86.7476   14.9334 N.pl3   1  UNL1       -0.2873
     15 H          64.8786   86.8274   15.7867 H       1  UNL1        0.1547
     16 C          62.1795   86.3829   11.0330 C.ar    1  UNL1        0.1249
     17 C          60.7379   86.7272   10.8021 C.ar    1  UNL1        0.1985
     18 O          60.4209   86.4528    9.3619 O.2     1  UNL1       -0.4282
     19 C          61.6664   85.9389    8.7027 C.ar    1  UNL1        0.2849
     20 N          62.7533   85.8957    9.7355 N.ar    1  UNL1       -0.2063
     21 C          62.7715   89.0936   12.1740 C.2     1  UNL1        0.3401
     22 O          61.4297   89.6971   12.4661 O.2     1  UNL1       -0.2451
     23 O          63.6711   89.7237   11.1525 O.3     1  UNL1       -0.4494
     24 C          63.9396   91.1988   11.1976 C.3     1  UNL1        0.1694
     25 C          64.6399   91.7977   12.3811 C.3     1  UNL1        0.0473
     26 C          63.5078   92.0749   10.0593 C.3     1  UNL1        0.0473
@<TRIPOS>BOND
     1     1     2    1
     2     2     3    2
     3     3    21    1
     4    21    22    2
     5    21    23    1
     6    23    24    1
     7    24    25    1
     8    24    26    1
     9     3     4    1
    10     4    16    1
    11    16    17   ar
    12    17    18   ar
    13    18    19   ar
    14    19    20   ar
    15     4     5    1
    16     5     6   ar
    17     6     7   ar
    18     7     8   ar
    19     8     9   ar
    20     9    10   ar
    21    10    11   ar
    22    11    12   ar
    23    12    13   ar
    24     6    14    1
    25    14     2    1
    26    20    16   ar
    27    13     5   ar
    28    13     8   ar
    29    14    15    1
@<TRIPOS>MOLECULE
*****
 26 29 0 0 0
SMALL
GASTEIGER

@<TRIPOS>ATOM
      1 C          62.0126   84.8672    8.5143 C.3     1  UNL1        0.0472
      2 C          62.3834   85.6855    9.7156 C.2     1  UNL1        0.0323
      3 C          62.7949   85.0060   10.9880 C.2     1  UNL1        0.0891
      4 C          63.1658   85.8242   12.1892 C.3     1  UNL1        0.1610
      5 N          63.1251   87.3220   12.1181 N.ar    1  UNL1       -0.2918
      6 C          62.7136   88.0015   10.8457 C.ar    1  UNL1        0.2019
      7 N          62.7677   89.4831   11.0731 N.ar    1  UNL1       -0.2135
      8 C          63.2126   89.7194   12.4860 C.ar    1  UNL1        0.0999
      9 C          63.4452   90.9781   13.2679 C.ar    1  UNL1        0.0207
     10 C          63.8986   90.9012   14.6956 C.ar    1  UNL1        0.0016
     11 C          64.1195   89.5655   15.3414 C.ar    1  UNL1        0.0016
     12 C          63.8870   88.3068   14.5596 C.ar    1  UNL1        0.0188
     13 C          63.4335   88.3837   13.1319 C.ar    1  UNL1        0.0804
     14 N          62.3428   87.1832    9.6445 N.pl3   1  UNL1       -0.2873
     15 H          62.0727   87.6292    8.8094 H       1  UNL1        0.1547
     16 C          63.5773   85.1447   13.4616 C.ar    1  UNL1        0.1249
     17 C          64.9572   84.6610   13.7965 C.ar    1  UNL1        0.1985
     18 O          64.9137   84.0469   15.1643 O.2     1  UNL1       -0.4282
     19 C          63.5072   84.1510   15.6749 C.ar    1  UNL1        0.2849
     20 N          62.6812   84.8295   14.6225 N.ar    1  UNL1       -0.2063
     21 C          62.8356   83.5082   11.0591 C.2     1  UNL1        0.3401
     22 O          63.8528   82.7469   10.2617 O.2     1  UNL1       -0.2451
     23 O          61.8592   82.7718   11.9277 O.3     1  UNL1       -0.4494
     24 C          62.3521   81.7587   12.9180 C.3     1  UNL1        0.1694
     25 C          61.3887   81.1020   13.8617 C.3     1  UNL1        0.0473
     26 C          63.8084   81.4024   12.9647 C.3     1  UNL1        0.0473
@<TRIPOS>BOND
     1     1     2    1
     2     2     3    2
     3     3    21    1
     4    21    22    2
     5    21    23    1
     6    23    24    1
     7    24    25    1
     8    24    26    1
     9     3     4    1
    10     4    16    1
    11    16    17   ar
    12    17    18   ar
    13    18    19   ar
    14    19    20   ar
    15     4     5    1
    16     5     6   ar
    17     6     7   ar
    18     7     8   ar
    19     8     9   ar
    20     9    10   ar
    21    10    11   ar
    22    11    12   ar
    23    12    13   ar
    24     6    14    1
    25    14     2    1
    26    20    16   ar
    27    13     5   ar
    28    13     8   ar
    29    14    15    1
@<TRIPOS>MOLECULE
*****
 26 29 0 0 0
SMALL
GASTEIGER

@<TRIPOS>ATOM
      1 C          63.1339   81.6113   10.3878 C.3     1  UNL1        0.0472
      2 C          63.0479   83.0569   10.7789 C.2     1  UNL1        0.0323
      3 C          63.2816   83.4636   12.2037 C.2     1  UNL1        0.0891
      4 C          63.1956   84.9091   12.5948 C.3     1  UNL1        0.1610
      5 N          62.8757   85.9480   11.5612 N.ar    1  UNL1       -0.2918
      6 C          62.6420   85.5413   10.1365 C.ar    1  UNL1        0.2019
      7 N          62.3469   86.7799    9.3434 N.ar    1  UNL1       -0.2135
      8 C          62.3982   87.9520   10.2781 C.ar    1  UNL1        0.0999
      9 C          62.1896   89.4210   10.0581 C.ar    1  UNL1        0.0207
     10 C          62.3079   90.3759   11.2088 C.ar    1  UNL1        0.0016
     11 C          62.6347   89.8617   12.5795 C.ar    1  UNL1        0.0016
     12 C          62.8434   88.3927   12.7995 C.ar    1  UNL1        0.0188
     13 C          62.7251   87.4379   11.6488 C.ar    1  UNL1        0.0804
     14 N          62.7280   84.0958    9.7453 N.pl3   1  UNL1       -0.2873
     15 H          62.5746   83.8289    8.8102 H       1  UNL1        0.1547
     16 C          63.4294   85.3158   14.0197 C.ar    1  UNL1        0.1249
     17 C          64.6567   85.9934   14.5531 C.ar    1  UNL1        0.1985
     18 O          64.4626   86.2125   16.0243 O.2     1  UNL1       -0.4282
     19 C          63.1155   85.6704   16.4001 C.ar    1  UNL1        0.2849
     20 N          62.4769   85.1161   15.1611 N.ar    1  UNL1       -0.2063
     21 C          63.6015   82.4246   13.2374 C.2     1  UNL1        0.3401
     22 O          64.9899   81.8652   13.3337 O.2     1  UNL1       -0.2451
     23 O          62.5329   81.9453   14.1746 O.3     1  UNL1       -0.4494
     24 C          61.7374   80.7184   13.8403 C.3     1  UNL1        0.1694
     25 C          60.2710   80.6675   14.1516 C.3     1  UNL1        0.0473
     26 C          62.4083   79.5423   13.1948 C.3     1  UNL1        0.0473
@<TRIPOS>BOND
     1     1     2    1
     2     2     3    2
     3     3    21    1
     4    21    22    2
     5    21    23    1
     6    23    24    1
     7    24    25    1
     8    24    26    1
     9     3     4    1
    10     4    16    1
    11    16    17   ar
    12    17    18   ar
    13    18    19   ar
    14    19    20   ar
    15     4     5    1
    16     5     6   ar
    17     6     7   ar
    18     7     8   ar
    19     8     9   ar
    20     9    10   ar
    21    10    11   ar
    22    11    12   ar
    23    12    13   ar
    24     6    14    1
    25    14     2    1
    26    20    16   ar
    27    13     5   ar
    28    13     8   ar
    29    14    15    1
@<TRIPOS>MOLECULE
*****
 26 29 0 0 0
SMALL
GASTEIGER

@<TRIPOS>ATOM
      1 C          56.7737   92.0051   -1.5828 C.3     1  UNL1        0.0472
      2 C          58.1824   92.4834   -1.3908 C.2     1  UNL1        0.0323
      3 C          58.7996   93.4181   -2.3884 C.2     1  UNL1        0.0891
      4 C          60.2083   93.8964   -2.1965 C.3     1  UNL1        0.1610
      5 N          60.9998   93.4400   -1.0068 N.ar    1  UNL1       -0.2918
      6 C          60.3825   92.5053   -0.0092 C.ar    1  UNL1        0.2019
      7 N          61.3999   92.2284    1.0577 N.ar    1  UNL1       -0.2135
      8 C          62.6459   92.9921    0.7195 C.ar    1  UNL1        0.0999
      9 C          63.9737   93.1023    1.4085 C.ar    1  UNL1        0.0207
     10 C          65.0542   93.9613    0.8215 C.ar    1  UNL1        0.0016
     11 C          64.8069   94.7101   -0.4545 C.ar    1  UNL1        0.0016
     12 C          63.4791   94.5999   -1.1435 C.ar    1  UNL1        0.0188
     13 C          62.3986   93.7408   -0.5565 C.ar    1  UNL1        0.0804
     14 N          58.9738   92.0270   -0.2011 N.pl3   1  UNL1       -0.2873
     15 H          58.5687   91.4135    0.4537 H       1  UNL1        0.1547
     16 C          60.8255   94.8311   -3.1942 C.ar    1  UNL1        0.1249
     17 C          60.7769   96.3296   -3.1460 C.ar    1  UNL1        0.1985
     18 O          61.5210   96.8560   -4.3373 O.2     1  UNL1       -0.4282
     19 C          62.0296   95.6830   -5.1217 C.ar    1  UNL1        0.2849
     20 N          61.5998   94.4315   -4.4152 N.ar    1  UNL1       -0.2063
     21 C          58.0081   93.8746   -3.5781 C.2     1  UNL1        0.3401
     22 O          57.8898   92.9905   -4.7841 O.2     1  UNL1       -0.2451
     23 O          57.3351   95.2150   -3.5618 O.3     1  UNL1       -0.4494
     24 C          56.6031   95.6717   -2.3347 C.3     1  UNL1        0.1694
     25 C          55.1737   95.2704   -2.1213 C.3     1  UNL1        0.0473
     26 C          57.3006   96.5297   -1.3211 C.3     1  UNL1        0.0473
@<TRIPOS>BOND
     1     1     2    1
     2     2     3    2
     3     3    21    1
     4    21    22    2
     5    21    23    1
     6    23    24    1
     7    24    25    1
     8    24    26    1
     9     3     4    1
    10     4    16    1
    11    16    17   ar
    12    17    18   ar
    13    18    19   ar
    14    19    20   ar
    15     4     5    1
    16     5     6   ar
    17     6     7   ar
    18     7     8   ar
    19     8     9   ar
    20     9    10   ar
    21    10    11   ar
    22    11    12   ar
    23    12    13   ar
    24     6    14    1
    25    14     2    1
    26    20    16   ar
    27    13     5   ar
    28    13     8   ar
    29    14    15    1
