@<TRIPOS>MOLECULE
*****
 12 13 0 0 0
SMALL
GASTEIGER

@<TRIPOS>ATOM
      1 C          61.7420   86.2992    9.3848 C.ar    1  UNL1       -0.0000
      2 C          61.5915   85.9544   10.8368 C.ar    1  UNL1       -0.0003
      3 C          62.4045   84.8432   11.4320 C.ar    1  UNL1       -0.0024
      4 C          63.3681   84.0769   10.5752 C.ar    1  UNL1        0.0004
      5 C          63.5186   84.4217    9.1232 C.ar    1  UNL1       -0.0024
      6 C          62.7056   85.5328    8.5280 C.ar    1  UNL1       -0.0003
      7 C          64.1811   82.9657   11.1704 C.3     1  UNL1        0.1343
      8 N          63.6065   82.1212   12.2689 N.ar    1  UNL1       -0.3036
      9 C          62.7902   80.8757   12.0884 C.ar    1  UNL1        0.0983
     10 C          62.4265   80.3587   13.4488 C.ar    1  UNL1        0.1193
     11 N          63.0180   81.2847   14.4700 N.ar    1  UNL1       -0.2223
     12 C          63.7472   82.3739   13.7408 C.ar    1  UNL1        0.1789
@<TRIPOS>BOND
     1     1     2   ar
     2     2     3   ar
     3     3     4   ar
     4     4     7    1
     5     7     8    1
     6     8     9   ar
     7     9    10   ar
     8    10    11   ar
     9    11    12   ar
    10     4     5   ar
    11     5     6   ar
    12     6     1   ar
    13    12     8   ar
@<TRIPOS>MOLECULE
*****
 12 13 0 0 0
SMALL
GASTEIGER

@<TRIPOS>ATOM
      1 C          61.9019   86.3821    8.9884 C.ar    1  UNL1       -0.0000
      2 C          62.8809   85.4414    8.3508 C.ar    1  UNL1       -0.0003
      3 C          63.5055   84.3453    9.1624 C.ar    1  UNL1       -0.0024
      4 C          63.1510   84.1900   10.6116 C.ar    1  UNL1        0.0004
      5 C          62.1719   85.1307   11.2492 C.ar    1  UNL1       -0.0024
      6 C          61.5474   86.2267   10.4376 C.ar    1  UNL1       -0.0003
      7 C          63.7755   83.0939   11.4232 C.3     1  UNL1        0.1343
      8 N          63.7417   83.1576   12.9214 N.ar    1  UNL1       -0.3036
      9 C          64.5983   84.0342   13.7862 C.ar    1  UNL1        0.0983
     10 C          64.2314   83.7742   15.2173 C.ar    1  UNL1        0.1193
     11 N          63.1479   82.7370   15.2369 N.ar    1  UNL1       -0.2223
     12 C          62.8452   82.3560   13.8180 C.ar    1  UNL1        0.1789
@<TRIPOS>BOND
     1     1     2   ar
     2     2     3   ar
     3     3     4   ar
     4     4     7    1
     5     7     8    1
     6     8     9   ar
     7     9    10   ar
     8    10    11   ar
     9    11    12   ar
    10     4     5   ar
    11     5     6   ar
    12     6     1   ar
    13    12     8   ar
@<TRIPOS>MOLECULE
*****
 12 13 0 0 0
SMALL
GASTEIGER

@<TRIPOS>ATOM
      1 C          62.1581   85.9965    8.7206 C.ar    1  UNL1       -0.0000
      2 C          61.5198   86.2950   10.0447 C.ar    1  UNL1       -0.0003
      3 C          61.9130   85.5099   11.2608 C.ar    1  UNL1       -0.0024
      4 C          62.9445   84.4263   11.1528 C.ar    1  UNL1        0.0004
      5 C          63.5828   84.1278    9.8287 C.ar    1  UNL1       -0.0024
      6 C          63.1896   84.9129    8.6125 C.ar    1  UNL1       -0.0003
      7 C          63.3376   83.6412   12.3690 C.3     1  UNL1        0.1343
      8 N          63.2195   84.2586   13.7308 N.ar    1  UNL1       -0.3036
      9 C          62.2979   83.8092   14.8257 C.ar    1  UNL1        0.0983
     10 C          62.5111   84.7068   16.0086 C.ar    1  UNL1        0.1193
     11 N          63.5644   85.7109   15.6447 N.ar    1  UNL1       -0.2223
     12 C          64.0022   85.4339   14.2370 C.ar    1  UNL1        0.1789
@<TRIPOS>BOND
     1     1     2   ar
     2     2     3   ar
     3     3     4   ar
     4     4     7    1
     5     7     8    1
     6     8     9   ar
     7     9    10   ar
     8    10    11   ar
     9    11    12   ar
    10     4     5   ar
    11     5     6   ar
    12     6     1   ar
    13    12     8   ar
@<TRIPOS>MOLECULE
*****
 12 13 0 0 0
SMALL
GASTEIGER

@<TRIPOS>ATOM
      1 C          63.8020   83.6020   10.2485 C.ar    1  UNL1       -0.0000
      2 C          63.4930   84.4622    9.0591 C.ar    1  UNL1       -0.0003
      3 C          62.5243   85.6002    9.1880 C.ar    1  UNL1       -0.0024
      4 C          61.8647   85.8781   10.5061 C.ar    1  UNL1        0.0004
      5 C          62.1736   85.0179   11.6954 C.ar    1  UNL1       -0.0024
      6 C          63.1423   83.8799   11.5666 C.ar    1  UNL1       -0.0003
      7 C          60.8960   87.0161   10.6349 C.3     1  UNL1        0.1343
      8 N          60.2251   87.5719    9.4139 N.ar    1  UNL1       -0.3036
      9 C          60.4402   88.9387    8.8347 C.ar    1  UNL1        0.0983
     10 C          59.5693   89.0699    7.6204 C.ar    1  UNL1        0.1193
     11 N          58.8160   87.7841    7.4491 N.ar    1  UNL1       -0.2223
     12 C          59.2213   86.8583    8.5575 C.ar    1  UNL1        0.1789
@<TRIPOS>BOND
     1     1     2   ar
     2     2     3   ar
     3     3     4   ar
     4     4     7    1
     5     7     8    1
     6     8     9   ar
     7     9    10   ar
     8    10    11   ar
     9    11    12   ar
    10     4     5   ar
    11     5     6   ar
    12     6     1   ar
    13    12     8   ar
@<TRIPOS>MOLECULE
*****
 12 13 0 0 0
SMALL
GASTEIGER

@<TRIPOS>ATOM
      1 C          63.6078   82.9665   12.1972 C.ar    1  UNL1       -0.0000
      2 C          64.2644   82.6841   10.8784 C.ar    1  UNL1       -0.0003
      3 C          63.9831   83.5643    9.6968 C.ar    1  UNL1       -0.0024
      4 C          63.0453   84.7269    9.8340 C.ar    1  UNL1        0.0004
      5 C          62.3887   85.0093   11.1527 C.ar    1  UNL1       -0.0024
      6 C          62.6700   84.1291   12.3343 C.ar    1  UNL1       -0.0003
      7 C          62.7640   85.6070    8.6524 C.3     1  UNL1        0.1343
      8 N          61.4604   86.3431    8.5589 N.ar    1  UNL1       -0.3036
      9 C          60.2550   85.9061    7.7804 C.ar    1  UNL1        0.0983
     10 C          59.1828   86.9384    7.9679 C.ar    1  UNL1        0.1193
     11 N          59.7257   88.0134    8.8622 N.ar    1  UNL1       -0.2223
     12 C          61.1333   87.6455    9.2275 C.ar    1  UNL1        0.1789
@<TRIPOS>BOND
     1     1     2   ar
     2     2     3   ar
     3     3     4   ar
     4     4     7    1
     5     7     8    1
     6     8     9   ar
     7     9    10   ar
     8    10    11   ar
     9    11    12   ar
    10     4     5   ar
    11     5     6   ar
    12     6     1   ar
    13    12     8   ar
@<TRIPOS>MOLECULE
*****
 12 13 0 0 0
SMALL
GASTEIGER

@<TRIPOS>ATOM
      1 C          64.1003   83.0553   11.5556 C.ar    1  UNL1       -0.0000
      2 C          64.1003   83.3110   10.0776 C.ar    1  UNL1       -0.0003
      3 C          63.2909   84.4399    9.5117 C.ar    1  UNL1       -0.0024
      4 C          62.4815   85.3133   10.4239 C.ar    1  UNL1        0.0004
      5 C          62.4815   85.0576   11.9019 C.ar    1  UNL1       -0.0024
      6 C          63.2909   83.9286   12.4677 C.ar    1  UNL1       -0.0003
      7 C          61.6721   86.4423    9.8580 C.3     1  UNL1        0.1343
      8 N          61.4214   87.6713   10.6805 N.ar    1  UNL1       -0.3036
      9 C          62.4610   88.6463   11.1483 C.ar    1  UNL1        0.0983
     10 C          61.7692   89.7188   11.9366 C.ar    1  UNL1        0.1193
     11 N          60.3022   89.4066   11.9561 N.ar    1  UNL1       -0.2223
     12 C          60.0872   88.1412   11.1798 C.ar    1  UNL1        0.1789
@<TRIPOS>BOND
     1     1     2   ar
     2     2     3   ar
     3     3     4   ar
     4     4     7    1
     5     7     8    1
     6     8     9   ar
     7     9    10   ar
     8    10    11   ar
     9    11    12   ar
    10     4     5   ar
    11     5     6   ar
    12     6     1   ar
    13    12     8   ar
@<TRIPOS>MOLECULE
*****
 12 13 0 0 0
SMALL
GASTEIGER

@<TRIPOS>ATOM
      1 C          63.5623   83.3932   11.2984 C.ar    1  UNL1       -0.0000
      2 C          62.7095   84.3465   12.0820 C.ar    1  UNL1       -0.0003
      3 C          62.0851   85.5280   11.4007 C.ar    1  UNL1       -0.0024
      4 C          62.3134   85.7563    9.9359 C.ar    1  UNL1        0.0004
      5 C          63.1661   84.8030    9.1524 C.ar    1  UNL1       -0.0024
      6 C          63.7906   83.6215    9.8336 C.ar    1  UNL1       -0.0003
      7 C          61.6889   86.9378    9.2547 C.3     1  UNL1        0.1343
      8 N          61.4102   88.1904   10.0313 N.ar    1  UNL1       -0.3036
      9 C          60.0898   88.5856   10.6230 C.ar    1  UNL1        0.0983
     10 C          60.2666   89.9074   11.3100 C.ar    1  UNL1        0.1193
     11 N          61.6964   90.3291   11.1427 N.ar    1  UNL1       -0.2223
     12 C          62.4032   89.2680   10.3525 C.ar    1  UNL1        0.1789
@<TRIPOS>BOND
     1     1     2   ar
     2     2     3   ar
     3     3     4   ar
     4     4     7    1
     5     7     8    1
     6     8     9   ar
     7     9    10   ar
     8    10    11   ar
     9    11    12   ar
    10     4     5   ar
    11     5     6   ar
    12     6     1   ar
    13    12     8   ar
@<TRIPOS>MOLECULE
*****
 12 13 0 0 0
SMALL
GASTEIGER

@<TRIPOS>ATOM
      1 C          45.8457   68.6531   12.5835 C.ar    1  UNL1       -0.0000
      2 C          46.5001   69.3665   13.7293 C.ar    1  UNL1       -0.0003
      3 C          45.7629   70.4517   14.4566 C.ar    1  UNL1       -0.0024
      4 C          44.3713   70.8234   14.0381 C.ar    1  UNL1        0.0004
      5 C          43.7169   70.1100   12.8924 C.ar    1  UNL1       -0.0024
      6 C          44.4541   69.0248   12.1651 C.ar    1  UNL1       -0.0003
      7 C          43.6341   71.9085   14.7654 C.3     1  UNL1        0.1343
      8 N          44.3837   72.8657   15.6440 N.ar    1  UNL1       -0.3036
      9 C          44.5485   72.7538   17.1307 C.ar    1  UNL1        0.0983
     10 C          45.3668   73.9219   17.5956 C.ar    1  UNL1        0.1193
     11 N          45.7077   74.7557   16.3962 N.ar    1  UNL1       -0.2223
     12 C          45.1001   74.1030   15.1900 C.ar    1  UNL1        0.1789
@<TRIPOS>BOND
     1     1     2   ar
     2     2     3   ar
     3     3     4   ar
     4     4     7    1
     5     7     8    1
     6     8     9   ar
     7     9    10   ar
     8    10    11   ar
     9    11    12   ar
    10     4     5   ar
    11     5     6   ar
    12     6     1   ar
    13    12     8   ar
@<TRIPOS>MOLECULE
*****
 12 13 0 0 0
SMALL
GASTEIGER

@<TRIPOS>ATOM
      1 C          63.9324   82.4177   11.7493 C.ar    1  UNL1       -0.0000
      2 C          64.8690   83.3114   12.5070 C.ar    1  UNL1       -0.0003
      3 C          64.4910   83.8108   13.8700 C.ar    1  UNL1       -0.0024
      4 C          63.1765   83.4164   14.4754 C.ar    1  UNL1        0.0004
      5 C          62.2399   82.5227   13.7177 C.ar    1  UNL1       -0.0024
      6 C          62.6179   82.0233   12.3547 C.ar    1  UNL1       -0.0003
      7 C          62.7985   83.9158   15.8384 C.3     1  UNL1        0.1343
      8 N          62.9754   85.3651   16.1818 N.ar    1  UNL1       -0.3036
      9 C          62.3944   86.0660   17.3740 C.ar    1  UNL1        0.0983
     10 C          62.8243   87.5022   17.3224 C.ar    1  UNL1        0.1193
     11 N          63.6710   87.6889   16.0983 N.ar    1  UNL1       -0.2223
     12 C          63.7644   86.3682   15.3934 C.ar    1  UNL1        0.1789
@<TRIPOS>BOND
     1     1     2   ar
     2     2     3   ar
     3     3     4   ar
     4     4     7    1
     5     7     8    1
     6     8     9   ar
     7     9    10   ar
     8    10    11   ar
     9    11    12   ar
    10     4     5   ar
    11     5     6   ar
    12     6     1   ar
    13    12     8   ar
