@<TRIPOS>MOLECULE
*****
 28 31 0 0 0
SMALL
GASTEIGER

@<TRIPOS>ATOM
      1 C          66.0305   92.4104   11.8450 C.2     1  UNL1       -0.0246
      2 C          64.7109   91.7058   11.7346 C.2     1  UNL1       -0.0421
      3 C          64.2290   91.4044   13.1228 C.3     1  UNL1        0.0480
      4 C          65.2507   91.9227   14.0910 C.ar    1  UNL1       -0.0184
      5 C          65.3110   91.9089   15.5897 C.ar    1  UNL1       -0.0040
      6 C          66.4848   92.5168   16.2986 C.ar    1  UNL1       -0.0003
      7 C          67.5982   93.1386   15.5089 C.ar    1  UNL1       -0.0000
      8 C          67.5379   93.1524   14.0102 C.ar    1  UNL1       -0.0006
      9 C          66.3641   92.5445   13.3012 C.ar    1  UNL1       -0.0079
     10 C          68.0125   92.0622   10.2015 C.3     1  UNL1        0.0111
     11 C          66.8693   92.8958   10.7000 C.3     1  UNL1        0.0634
     12 C          66.5649   94.2146   10.0535 C.ar    1  UNL1        0.0818
     13 C          67.2620   94.6064    8.7844 C.ar    1  UNL1        0.1139
     14 N          66.9577   95.9253    8.1380 N.ar    1  UNL1       -0.2394
     15 C          65.9562   96.8523    8.7605 C.ar    1  UNL1        0.1195
     16 C          65.2590   96.4606   10.0296 C.ar    1  UNL1        0.1191
     17 N          65.5634   95.1417   10.6760 N.ar    1  UNL1       -0.2446
     18 C          63.9984   91.3628   10.4600 C.3     1  UNL1        0.0394
     19 C          62.5074   91.1994   10.4549 C.3     1  UNL1        0.0768
     20 N          61.8930   89.9068   10.9042 N.3     1  UNL1       -0.2661
     21 C          60.9301   89.8939   12.0543 C.3     1  UNL1        0.0899
     22 C          62.2414   88.6272   10.2033 C.3     1  UNL1        0.1187
     23 C          61.2481   87.9813    9.2835 C.ar    1  UNL1        0.0752
     24 C          61.4039   86.5381    8.9056 C.ar    1  UNL1        0.0161
     25 C          60.4106   85.8922    7.9858 C.ar    1  UNL1        0.0028
     26 C          59.2613   86.6894    7.4440 C.ar    1  UNL1        0.0207
     27 C          59.1055   88.1326    7.8219 C.ar    1  UNL1        0.0985
     28 N          60.0988   88.7785    8.7417 N.ar    1  UNL1       -0.2468
@<TRIPOS>BOND
     1    11    10    1
     2    11     1    1
     3     1     2    2
     4     2    18    1
     5    18    19    1
     6    19    20    1
     7    20    21    1
     8    20    22    1
     9    22    23    1
    10    23    24   ar
    11    24    25   ar
    12    25    26   ar
    13    26    27   ar
    14    27    28   ar
    15     2     3    1
    16     3     4    1
    17     4     5   ar
    18     5     6   ar
    19     6     7   ar
    20     7     8   ar
    21     8     9   ar
    22    11    12    1
    23    12    13   ar
    24    13    14   ar
    25    14    15   ar
    26    15    16   ar
    27    16    17   ar
    28     9     1    1
    29    17    12   ar
    30    28    23   ar
    31     9     4   ar
@<TRIPOS>MOLECULE
*****
 28 31 0 0 0
SMALL
GASTEIGER

@<TRIPOS>ATOM
      1 C          63.7171   89.0745   13.5376 C.2     1  UNL1       -0.0246
      2 C          63.9540   87.6064   13.7337 C.2     1  UNL1       -0.0421
      3 C          63.3403   86.8790   12.5743 C.3     1  UNL1        0.0480
      4 C          62.7242   87.8975   11.6616 C.ar    1  UNL1       -0.0184
      5 C          61.9813   87.7647   10.3654 C.ar    1  UNL1       -0.0040
      6 C          61.4712   88.9888    9.6645 C.ar    1  UNL1       -0.0003
      7 C          61.7040   90.3457   10.2598 C.ar    1  UNL1       -0.0000
      8 C          62.4470   90.4786   11.5561 C.ar    1  UNL1       -0.0006
      9 C          62.9571   89.2545   12.2570 C.ar    1  UNL1       -0.0079
     10 C          63.5937   90.2617   15.8454 C.3     1  UNL1        0.0111
     11 C          64.1621   90.1704   14.4601 C.3     1  UNL1        0.0634
     12 C          65.1754   91.1749   13.9976 C.ar    1  UNL1        0.0818
     13 C          66.5451   91.1946   14.6088 C.ar    1  UNL1        0.1139
     14 N          67.5584   92.1992   14.1462 N.ar    1  UNL1       -0.2394
     15 C          67.2021   93.1841   13.0725 C.ar    1  UNL1        0.1195
     16 C          65.8324   93.1645   12.4613 C.ar    1  UNL1        0.1191
     17 N          64.8191   92.1599   12.9238 N.ar    1  UNL1       -0.2446
     18 C          64.6775   86.9764   14.8868 C.3     1  UNL1        0.0394
     19 C          63.9339   86.0986   15.8494 C.3     1  UNL1        0.0768
     20 N          63.4529   84.7463   15.4134 N.3     1  UNL1       -0.2661
     21 C          62.0212   84.3541   15.6290 C.3     1  UNL1        0.0899
     22 C          64.4036   83.7863   14.7620 C.3     1  UNL1        0.1187
     23 C          63.9132   82.8524   13.6955 C.ar    1  UNL1        0.0752
     24 C          64.0257   83.2388   12.2505 C.ar    1  UNL1        0.0161
     25 C          63.5353   82.3050   11.1840 C.ar    1  UNL1        0.0028
     26 C          62.9322   80.9848   11.5625 C.ar    1  UNL1        0.0207
     27 C          62.8197   80.5984   13.0075 C.ar    1  UNL1        0.0985
     28 N          63.3102   81.5322   14.0740 N.ar    1  UNL1       -0.2468
@<TRIPOS>BOND
     1    11    10    1
     2    11     1    1
     3     1     2    2
     4     2    18    1
     5    18    19    1
     6    19    20    1
     7    20    21    1
     8    20    22    1
     9    22    23    1
    10    23    24   ar
    11    24    25   ar
    12    25    26   ar
    13    26    27   ar
    14    27    28   ar
    15     2     3    1
    16     3     4    1
    17     4     5   ar
    18     5     6   ar
    19     6     7   ar
    20     7     8   ar
    21     8     9   ar
    22    11    12    1
    23    12    13   ar
    24    13    14   ar
    25    14    15   ar
    26    15    16   ar
    27    16    17   ar
    28     9     1    1
    29    17    12   ar
    30    28    23   ar
    31     9     4   ar
@<TRIPOS>MOLECULE
*****
 28 31 0 0 0
SMALL
GASTEIGER

@<TRIPOS>ATOM
      1 C          62.9597   85.3509   11.9819 C.2     1  UNL1       -0.0246
      2 C          63.4813   86.0656   13.1932 C.2     1  UNL1       -0.0421
      3 C          63.8378   85.0341   14.2222 C.3     1  UNL1        0.0480
      4 C          63.5365   83.6819   13.6470 C.ar    1  UNL1       -0.0184
      5 C          63.6861   82.2977   14.2051 C.ar    1  UNL1       -0.0040
      6 C          63.2931   81.1093   13.3786 C.ar    1  UNL1       -0.0003
      7 C          62.7505   81.3051   11.9940 C.ar    1  UNL1       -0.0000
      8 C          62.6008   82.6893   11.4359 C.ar    1  UNL1       -0.0006
      9 C          62.9938   83.8777   12.2624 C.ar    1  UNL1       -0.0079
     10 C          62.7405   85.3296    9.3931 C.3     1  UNL1        0.0111
     11 C          62.4870   85.9961   10.7130 C.3     1  UNL1        0.0634
     12 C          61.7609   87.3075   10.7636 C.ar    1  UNL1        0.0818
     13 C          62.3105   88.4978   10.0348 C.ar    1  UNL1        0.1139
     14 N          61.5843   89.8093   10.0855 N.ar    1  UNL1       -0.2394
     15 C          60.3085   89.9306   10.8650 C.ar    1  UNL1        0.1195
     16 C          59.7589   88.7403   11.5939 C.ar    1  UNL1        0.1191
     17 N          60.4851   87.4288   11.5432 N.ar    1  UNL1       -0.2446
     18 C          63.6218   87.5509   13.3481 C.3     1  UNL1        0.0394
     19 C          64.3482   88.1160   14.5326 C.3     1  UNL1        0.0768
     20 N          63.6747   89.1264   15.4133 N.3     1  UNL1       -0.2661
     21 C          63.1436   88.7163   16.7550 C.3     1  UNL1        0.0899
     22 C          63.5324   90.5467   14.9525 C.3     1  UNL1        0.1187
     23 C          64.6237   91.1866   14.1466 C.ar    1  UNL1        0.0752
     24 C          66.0145   91.2719   14.7017 C.ar    1  UNL1        0.0161
     25 C          67.1058   91.9119   13.8958 C.ar    1  UNL1        0.0028
     26 C          66.8063   92.4666   12.5347 C.ar    1  UNL1        0.0207
     27 C          65.4154   92.3813   11.9796 C.ar    1  UNL1        0.0985
     28 N          64.3241   91.7413   12.7856 N.ar    1  UNL1       -0.2468
@<TRIPOS>BOND
     1    11    10    1
     2    11     1    1
     3     1     2    2
     4     2    18    1
     5    18    19    1
     6    19    20    1
     7    20    21    1
     8    20    22    1
     9    22    23    1
    10    23    24   ar
    11    24    25   ar
    12    25    26   ar
    13    26    27   ar
    14    27    28   ar
    15     2     3    1
    16     3     4    1
    17     4     5   ar
    18     5     6   ar
    19     6     7   ar
    20     7     8   ar
    21     8     9   ar
    22    11    12    1
    23    12    13   ar
    24    13    14   ar
    25    14    15   ar
    26    15    16   ar
    27    16    17   ar
    28     9     1    1
    29    17    12   ar
    30    28    23   ar
    31     9     4   ar
@<TRIPOS>MOLECULE
*****
 28 31 0 0 0
SMALL
GASTEIGER

@<TRIPOS>ATOM
      1 C          64.8054   91.6432   12.3844 C.2     1  UNL1       -0.0246
      2 C          64.0715   90.4637   12.9500 C.2     1  UNL1       -0.0421
      3 C          64.4414   90.3385   14.3982 C.3     1  UNL1        0.0480
      4 C          65.4041   91.4407   14.7277 C.ar    1  UNL1       -0.0184
      5 C          66.1048   91.8142   16.0003 C.ar    1  UNL1       -0.0040
      6 C          67.0305   92.9941   16.0281 C.ar    1  UNL1       -0.0003
      7 C          67.2555   93.8005   14.7835 C.ar    1  UNL1       -0.0000
      8 C          66.5548   93.4270   13.5110 C.ar    1  UNL1       -0.0006
      9 C          65.6290   92.2471   13.4831 C.ar    1  UNL1       -0.0079
     10 C          63.6083   91.6836   10.0788 C.3     1  UNL1        0.0111
     11 C          64.7292   92.1330   10.9687 C.3     1  UNL1        0.0634
     12 C          65.7738   93.0721   10.4427 C.ar    1  UNL1        0.0818
     13 C          67.1235   92.5488   10.0496 C.ar    1  UNL1        0.1139
     14 N          68.1680   93.4880    9.5235 N.ar    1  UNL1       -0.2394
     15 C          67.8630   94.9506    9.3906 C.ar    1  UNL1        0.1195
     16 C          66.5133   95.4741    9.7836 C.ar    1  UNL1        0.1191
     17 N          65.4688   94.5348   10.3096 N.ar    1  UNL1       -0.2446
     18 C          63.1324   89.5668   12.1992 C.3     1  UNL1        0.0394
     19 C          61.6606   89.6145   12.4846 C.3     1  UNL1        0.0768
     20 N          60.6745   89.3558   11.3843 N.3     1  UNL1       -0.2661
     21 C          60.1743   90.4925   10.5429 C.3     1  UNL1        0.0899
     22 C          60.1885   87.9606   11.1254 C.3     1  UNL1        0.1187
     23 C          61.1523   86.9014   10.6792 C.ar    1  UNL1        0.0752
     24 C          61.6140   86.8603    9.2526 C.ar    1  UNL1        0.0161
     25 C          62.5778   85.8011    8.8064 C.ar    1  UNL1        0.0028
     26 C          63.0800   84.7830    9.7868 C.ar    1  UNL1        0.0207
     27 C          62.6184   84.8240   11.2133 C.ar    1  UNL1        0.0985
     28 N          61.6545   85.8832   11.6595 N.ar    1  UNL1       -0.2468
@<TRIPOS>BOND
     1    11    10    1
     2    11     1    1
     3     1     2    2
     4     2    18    1
     5    18    19    1
     6    19    20    1
     7    20    21    1
     8    20    22    1
     9    22    23    1
    10    23    24   ar
    11    24    25   ar
    12    25    26   ar
    13    26    27   ar
    14    27    28   ar
    15     2     3    1
    16     3     4    1
    17     4     5   ar
    18     5     6   ar
    19     6     7   ar
    20     7     8   ar
    21     8     9   ar
    22    11    12    1
    23    12    13   ar
    24    13    14   ar
    25    14    15   ar
    26    15    16   ar
    27    16    17   ar
    28     9     1    1
    29    17    12   ar
    30    28    23   ar
    31     9     4   ar
@<TRIPOS>MOLECULE
*****
 28 31 0 0 0
SMALL
GASTEIGER

@<TRIPOS>ATOM
      1 C          63.3174   88.4131   12.5476 C.2     1  UNL1       -0.0246
      2 C          63.9435   89.1922   13.6661 C.2     1  UNL1       -0.0421
      3 C          64.4141   88.2165   14.7037 C.3     1  UNL1        0.0480
      4 C          64.0789   86.8345   14.2265 C.ar    1  UNL1       -0.0184
      5 C          64.3032   85.4812   14.8331 C.ar    1  UNL1       -0.0040
      6 C          63.8498   84.2494   14.1072 C.ar    1  UNL1       -0.0003
      7 C          63.1720   84.3709   12.7746 C.ar    1  UNL1       -0.0000
      8 C          62.9477   85.7242   12.1679 C.ar    1  UNL1       -0.0006
      9 C          63.4011   86.9560   12.8939 C.ar    1  UNL1       -0.0079
     10 C          62.9663   90.4236   10.9398 C.3     1  UNL1        0.0111
     11 C          62.7136   88.9899   11.3014 C.3     1  UNL1        0.0634
     12 C          61.8572   88.1331   10.4170 C.ar    1  UNL1        0.0818
     13 C          60.3631   88.1896   10.5370 C.ar    1  UNL1        0.1139
     14 N          59.5067   87.3328    9.6524 N.ar    1  UNL1       -0.2394
     15 C          60.1444   86.4194    8.6479 C.ar    1  UNL1        0.1195
     16 C          61.6385   86.3629    8.5278 C.ar    1  UNL1        0.1191
     17 N          62.4949   87.2198    9.4123 N.ar    1  UNL1       -0.2446
     18 C          64.0757   90.6847   13.7349 C.3     1  UNL1        0.0394
     19 C          65.4034   91.3062   14.0525 C.3     1  UNL1        0.0768
     20 N          65.7757   92.6287   13.4505 N.3     1  UNL1       -0.2661
     21 C          66.5873   93.6111   14.2419 C.3     1  UNL1        0.0899
     22 C          65.3365   92.9688   12.0572 C.3     1  UNL1        0.1187
     23 C          66.3581   93.2751   11.0025 C.ar    1  UNL1        0.0752
     24 C          67.3077   92.2077   10.5456 C.ar    1  UNL1        0.0161
     25 C          68.3294   92.5140    9.4909 C.ar    1  UNL1        0.0028
     26 C          68.4014   93.8878    8.8931 C.ar    1  UNL1        0.0207
     27 C          67.4518   94.9553    9.3500 C.ar    1  UNL1        0.0985
     28 N          66.4302   94.6489   10.4047 N.ar    1  UNL1       -0.2468
@<TRIPOS>BOND
     1    11    10    1
     2    11     1    1
     3     1     2    2
     4     2    18    1
     5    18    19    1
     6    19    20    1
     7    20    21    1
     8    20    22    1
     9    22    23    1
    10    23    24   ar
    11    24    25   ar
    12    25    26   ar
    13    26    27   ar
    14    27    28   ar
    15     2     3    1
    16     3     4    1
    17     4     5   ar
    18     5     6   ar
    19     6     7   ar
    20     7     8   ar
    21     8     9   ar
    22    11    12    1
    23    12    13   ar
    24    13    14   ar
    25    14    15   ar
    26    15    16   ar
    27    16    17   ar
    28     9     1    1
    29    17    12   ar
    30    28    23   ar
    31     9     4   ar
@<TRIPOS>MOLECULE
*****
 28 31 0 0 0
SMALL
GASTEIGER

@<TRIPOS>ATOM
      1 C          63.2974   87.6243   12.7281 C.2     1  UNL1       -0.0246
      2 C          63.4139   89.1121   12.5772 C.2     1  UNL1       -0.0421
      3 C          62.7265   89.5039   11.3029 C.3     1  UNL1        0.0480
      4 C          62.1852   88.2582   10.6662 C.ar    1  UNL1       -0.0184
      5 C          61.4166   88.0317    9.3982 C.ar    1  UNL1       -0.0040
      6 C          61.0008   86.6434    9.0111 C.ar    1  UNL1       -0.0003
      7 C          61.3537   85.4818    9.8920 C.ar    1  UNL1       -0.0000
      8 C          62.1223   85.7083   11.1600 C.ar    1  UNL1       -0.0006
      9 C          62.5381   87.0965   11.5471 C.ar    1  UNL1       -0.0079
     10 C          64.6263   87.4718   14.9555 C.3     1  UNL1        0.0111
     11 C          63.8444   86.8075   13.8612 C.3     1  UNL1        0.0634
     12 C          63.6095   85.3266   13.9000 C.ar    1  UNL1        0.0818
     13 C          64.5838   84.3951   13.2420 C.ar    1  UNL1        0.1139
     14 N          64.3488   82.9141   13.2809 N.ar    1  UNL1       -0.2394
     15 C          63.1396   82.3646   13.9777 C.ar    1  UNL1        0.1195
     16 C          62.1651   83.2961   14.6357 C.ar    1  UNL1        0.1191
     17 N          62.4001   84.7770   14.5969 N.ar    1  UNL1       -0.2446
     18 C          64.0977   90.0444   13.5328 C.3     1  UNL1        0.0394
     19 C          64.4023   91.4533   13.1176 C.3     1  UNL1        0.0768
     20 N          65.6847   92.1014   13.5480 N.3     1  UNL1       -0.2661
     21 C          66.5275   91.4630   14.6121 C.3     1  UNL1        0.0899
     22 C          66.1244   93.3879   12.9143 C.3     1  UNL1        0.1187
     23 C          66.8321   93.3691   11.5919 C.ar    1  UNL1        0.0752
     24 C          67.4604   92.1008   11.0954 C.ar    1  UNL1        0.0161
     25 C          68.1681   92.0820    9.7730 C.ar    1  UNL1        0.0028
     26 C          68.2475   93.3316    8.9471 C.ar    1  UNL1        0.0207
     27 C          67.6193   94.5999    9.4435 C.ar    1  UNL1        0.0985
     28 N          66.9115   94.6187   10.7659 N.ar    1  UNL1       -0.2468
@<TRIPOS>BOND
     1    11    10    1
     2    11     1    1
     3     1     2    2
     4     2    18    1
     5    18    19    1
     6    19    20    1
     7    20    21    1
     8    20    22    1
     9    22    23    1
    10    23    24   ar
    11    24    25   ar
    12    25    26   ar
    13    26    27   ar
    14    27    28   ar
    15     2     3    1
    16     3     4    1
    17     4     5   ar
    18     5     6   ar
    19     6     7   ar
    20     7     8   ar
    21     8     9   ar
    22    11    12    1
    23    12    13   ar
    24    13    14   ar
    25    14    15   ar
    26    15    16   ar
    27    16    17   ar
    28     9     1    1
    29    17    12   ar
    30    28    23   ar
    31     9     4   ar
@<TRIPOS>MOLECULE
*****
 28 31 0 0 0
SMALL
GASTEIGER

@<TRIPOS>ATOM
      1 C          63.4516   89.9984   12.6637 C.2     1  UNL1       -0.0246
      2 C          64.0968   89.5515   13.9419 C.2     1  UNL1       -0.0421
      3 C          65.3008   90.4140   14.1796 C.3     1  UNL1        0.0480
      4 C          65.3997   91.3939   13.0482 C.ar    1  UNL1       -0.0184
      5 C          66.3827   92.4869   12.7501 C.ar    1  UNL1       -0.0040
      6 C          66.2229   93.3231   11.5152 C.ar    1  UNL1       -0.0003
      7 C          65.0800   93.0662   10.5783 C.ar    1  UNL1       -0.0000
      8 C          64.0969   91.9732   10.8764 C.ar    1  UNL1       -0.0006
      9 C          64.2568   91.1371   12.1114 C.ar    1  UNL1       -0.0079
     10 C          60.8989   90.1096   12.1926 C.3     1  UNL1        0.0111
     11 C          62.2177   89.4099   12.0462 C.3     1  UNL1        0.0634
     12 C          62.3025   88.1219   11.2823 C.ar    1  UNL1        0.0818
     13 C          62.2672   88.1354    9.7827 C.ar    1  UNL1        0.1139
     14 N          62.3520   86.8473    9.0189 N.ar    1  UNL1       -0.2394
     15 C          62.4721   85.5456    9.7545 C.ar    1  UNL1        0.1195
     16 C          62.5074   85.5320   11.2540 C.ar    1  UNL1        0.1191
     17 N          62.4226   86.8201   12.0179 N.ar    1  UNL1       -0.2446
     18 C          63.6216   88.4376   14.8271 C.3     1  UNL1        0.0394
     19 C          64.3285   87.1148   14.8130 C.3     1  UNL1        0.0768
     20 N          63.9022   86.0265   15.7532 N.3     1  UNL1       -0.2661
     21 C          62.8958   86.3151   16.8275 C.3     1  UNL1        0.0899
     22 C          64.4822   84.6498   15.6192 C.3     1  UNL1        0.1187
     23 C          63.8326   83.6472   14.7121 C.ar    1  UNL1        0.0752
     24 C          64.4057   83.3854   13.3509 C.ar    1  UNL1        0.0161
     25 C          63.7560   82.3829   12.4437 C.ar    1  UNL1        0.0028
     26 C          62.5333   81.6422   12.8978 C.ar    1  UNL1        0.0207
     27 C          61.9602   81.9040   14.2590 C.ar    1  UNL1        0.0985
     28 N          62.6099   82.9065   15.1662 N.ar    1  UNL1       -0.2468
@<TRIPOS>BOND
     1    11    10    1
     2    11     1    1
     3     1     2    2
     4     2    18    1
     5    18    19    1
     6    19    20    1
     7    20    21    1
     8    20    22    1
     9    22    23    1
    10    23    24   ar
    11    24    25   ar
    12    25    26   ar
    13    26    27   ar
    14    27    28   ar
    15     2     3    1
    16     3     4    1
    17     4     5   ar
    18     5     6   ar
    19     6     7   ar
    20     7     8   ar
    21     8     9   ar
    22    11    12    1
    23    12    13   ar
    24    13    14   ar
    25    14    15   ar
    26    15    16   ar
    27    16    17   ar
    28     9     1    1
    29    17    12   ar
    30    28    23   ar
    31     9     4   ar
@<TRIPOS>MOLECULE
*****
 28 31 0 0 0
SMALL
GASTEIGER

@<TRIPOS>ATOM
      1 C          63.7483   84.7507   13.4617 C.2     1  UNL1       -0.0246
      2 C          63.0822   85.4743   12.3291 C.2     1  UNL1       -0.0421
      3 C          62.4358   84.4518   11.4422 C.3     1  UNL1        0.0480
      4 C          62.7024   83.0963   12.0266 C.ar    1  UNL1       -0.0184
      5 C          62.3113   81.7176   11.5835 C.ar    1  UNL1       -0.0040
      6 C          62.7314   80.5237   12.3885 C.ar    1  UNL1       -0.0003
      7 C          63.5426   80.7085   13.6366 C.ar    1  UNL1       -0.0000
      8 C          63.9337   82.0871   14.0797 C.ar    1  UNL1       -0.0006
      9 C          63.5136   83.2810   13.2747 C.ar    1  UNL1       -0.0079
     10 C          66.0102   85.2772   14.6266 C.3     1  UNL1        0.0111
     11 C          64.5146   85.3853   14.5842 C.3     1  UNL1        0.0634
     12 C          63.7856   86.1281   15.6643 C.ar    1  UNL1        0.0818
     13 C          63.0272   85.3715   16.7143 C.ar    1  UNL1        0.1139
     14 N          62.2982   86.1143   17.7944 N.ar    1  UNL1       -0.2394
     15 C          62.3274   87.6137   17.8245 C.ar    1  UNL1        0.1195
     16 C          63.0857   88.3704   16.7745 C.ar    1  UNL1        0.1191
     17 N          63.8148   87.6275   15.6944 N.ar    1  UNL1       -0.2446
     18 C          63.0655   86.9596   12.1202 C.3     1  UNL1        0.0394
     19 C          62.1293   87.5653   11.1169 C.3     1  UNL1        0.0768
     20 N          61.4412   88.8630   11.4211 N.3     1  UNL1       -0.2661
     21 C          60.2206   89.2641   10.6469 C.3     1  UNL1        0.0899
     22 C          61.9737   89.7595   12.4993 C.3     1  UNL1        0.1187
     23 C          63.1387   90.6612   12.2176 C.ar    1  UNL1        0.0752
     24 C          63.3799   91.1620   10.8244 C.ar    1  UNL1        0.0161
     25 C          64.5449   92.0637   10.5426 C.ar    1  UNL1        0.0028
     26 C          65.4689   92.4648   11.6541 C.ar    1  UNL1        0.0207
     27 C          65.2278   91.9641   13.0473 C.ar    1  UNL1        0.0985
     28 N          64.0627   91.0623   13.3290 N.ar    1  UNL1       -0.2468
@<TRIPOS>BOND
     1    11    10    1
     2    11     1    1
     3     1     2    2
     4     2    18    1
     5    18    19    1
     6    19    20    1
     7    20    21    1
     8    20    22    1
     9    22    23    1
    10    23    24   ar
    11    24    25   ar
    12    25    26   ar
    13    26    27   ar
    14    27    28   ar
    15     2     3    1
    16     3     4    1
    17     4     5   ar
    18     5     6   ar
    19     6     7   ar
    20     7     8   ar
    21     8     9   ar
    22    11    12    1
    23    12    13   ar
    24    13    14   ar
    25    14    15   ar
    26    15    16   ar
    27    16    17   ar
    28     9     1    1
    29    17    12   ar
    30    28    23   ar
    31     9     4   ar
@<TRIPOS>MOLECULE
*****
 28 31 0 0 0
SMALL
GASTEIGER

@<TRIPOS>ATOM
      1 C          63.8083   88.8722   13.7095 C.2     1  UNL1       -0.0246
      2 C          63.2350   88.9225   12.3243 C.2     1  UNL1       -0.0421
      3 C          63.0141   87.5125   11.8626 C.3     1  UNL1        0.0480
      4 C          63.4508   86.5908   12.9625 C.ar    1  UNL1       -0.0184
      5 C          63.4650   85.0949   13.0721 C.ar    1  UNL1       -0.0040
      6 C          63.9700   84.4393   14.3232 C.ar    1  UNL1       -0.0003
      7 C          64.4608   85.2797   15.4646 C.ar    1  UNL1       -0.0000
      8 C          64.4467   86.7756   15.3550 C.ar    1  UNL1       -0.0006
      9 C          63.9417   87.4311   14.1040 C.ar    1  UNL1       -0.0079
     10 C          63.5583   90.2408   15.9037 C.3     1  UNL1        0.0111
     11 C          64.1824   90.0552   14.5523 C.3     1  UNL1        0.0634
     12 C          65.1806   91.0527   14.0440 C.ar    1  UNL1        0.0818
     13 C          66.6007   91.0046   14.5249 C.ar    1  UNL1        0.1139
     14 N          67.5989   92.0022   14.0164 N.ar    1  UNL1       -0.2394
     15 C          67.1771   93.0477   13.0271 C.ar    1  UNL1        0.1195
     16 C          65.7571   93.0958   12.5461 C.ar    1  UNL1        0.1191
     17 N          64.7589   92.0983   13.0545 N.ar    1  UNL1       -0.2446
     18 C          62.9352   90.1646   11.5387 C.3     1  UNL1        0.0394
     19 C          61.5678   90.7782   11.5986 C.3     1  UNL1        0.0768
     20 N          60.3789   90.0106   11.1013 N.3     1  UNL1       -0.2661
     21 C          59.4227   89.3931   12.0783 C.3     1  UNL1        0.0899
     22 C          60.1461   89.8606    9.6271 C.3     1  UNL1        0.1187
     23 C          60.2057   88.5027    8.9927 C.ar    1  UNL1        0.0752
     24 C          61.3780   87.6039    9.2535 C.ar    1  UNL1        0.0161
     25 C          61.4376   86.2460    8.6191 C.ar    1  UNL1        0.0028
     26 C          60.3250   85.7868    7.7240 C.ar    1  UNL1        0.0207
     27 C          59.1528   86.6856    7.4632 C.ar    1  UNL1        0.0985
     28 N          59.0932   88.0435    8.0976 N.ar    1  UNL1       -0.2468
@<TRIPOS>BOND
     1    11    10    1
     2    11     1    1
     3     1     2    2
     4     2    18    1
     5    18    19    1
     6    19    20    1
     7    20    21    1
     8    20    22    1
     9    22    23    1
    10    23    24   ar
    11    24    25   ar
    12    25    26   ar
    13    26    27   ar
    14    27    28   ar
    15     2     3    1
    16     3     4    1
    17     4     5   ar
    18     5     6   ar
    19     6     7   ar
    20     7     8   ar
    21     8     9   ar
    22    11    12    1
    23    12    13   ar
    24    13    14   ar
    25    14    15   ar
    26    15    16   ar
    27    16    17   ar
    28     9     1    1
    29    17    12   ar
    30    28    23   ar
    31     9     4   ar
