@<TRIPOS>MOLECULE
*****
 24 26 0 0 0
SMALL
GASTEIGER

@<TRIPOS>ATOM
      1 C          64.6330   88.4741   14.5640 C.3     1  UNL1        0.0518
      2 C          63.8389   87.6870   13.5640 C.ar    1  UNL1        0.0568
      3 N          63.1653   88.3884   12.4219 N.ar    1  UNL1       -0.2456
      4 C          62.3712   87.6014   11.4219 C.ar    1  UNL1        0.1316
      5 C          62.2507   86.1130   11.5640 C.ar    1  UNL1        0.0194
      6 C          62.9242   85.4116   12.7061 C.ar    1  UNL1       -0.0015
      7 C          63.7184   86.1987   13.7061 C.ar    1  UNL1        0.0068
      8 C          61.4075   85.6060   10.4317 C.3     1  UNL1        0.1183
      9 N          61.0070   86.7811    9.5899 N.am    1  UNL1       -0.2956
     10 C          61.6025   88.0143   10.2018 C.2     1  UNL1        0.2636
     11 O          61.4553   89.4145    9.6845 O.2     1  UNL1       -0.2685
     12 H          60.4508   86.7486    8.7782 H       1  UNL1        0.1501
     13 C          62.8038   83.9232   12.8482 C.ar    1  UNL1        0.0102
     14 C          62.0164   83.3396   13.9837 C.ar    1  UNL1        0.0017
     15 C          61.8958   81.8512   14.1259 C.ar    1  UNL1        0.0114
     16 C          62.5627   80.9465   13.1326 C.ar    1  UNL1        0.0585
     17 CL         62.4422   79.4581   13.2748 Cl      1  UNL1       -0.0822
     18 C          63.3501   81.5301   11.9971 C.ar    1  UNL1        0.0228
     19 C          63.4706   83.0185   11.8549 C.ar    1  UNL1        0.0585
     20 CL         64.2580   83.6021   10.7193 Cl      1  UNL1       -0.0822
     21 C          64.3920   85.4973   14.8482 C.3     1  UNL1        0.0934
     22 N          65.6748   84.7540   14.6202 N.3     1  UNL1       -0.3174
     23 H          65.5014   83.9564   14.0084 H       1  UNL1        0.1192
     24 H          66.0400   84.4242   15.5136 H       1  UNL1        0.1192
@<TRIPOS>BOND
     1     1     2    1
     2     2     3   ar
     3     3     4   ar
     4     4     5   ar
     5     5     6   ar
     6     6    13    1
     7    13    14   ar
     8    14    15   ar
     9    15    16   ar
    10    16    17    1
    11    16    18   ar
    12    18    19   ar
    13    19    20    1
    14     6     7   ar
    15     7    21    1
    16    21    22    1
    17     5     8    1
    18     8     9    1
    19     9    10   am
    20    10    11    2
    21     7     2   ar
    22    10     4    1
    23    19    13   ar
    24    22    23    1
    25    22    24    1
    26     9    12    1
@<TRIPOS>MOLECULE
*****
 24 26 0 0 0
SMALL
GASTEIGER

@<TRIPOS>ATOM
      1 C          62.8076   91.1348    9.9263 C.3     1  UNL1        0.0518
      2 C          63.5980   91.1684   11.2008 C.ar    1  UNL1        0.0568
      3 N          64.6274   92.2378   11.4169 N.ar    1  UNL1       -0.2456
      4 C          65.4177   92.2714   12.6913 C.ar    1  UNL1        0.1316
      5 C          65.1786   91.2357   13.7497 C.ar    1  UNL1        0.0194
      6 C          64.1492   90.1663   13.5336 C.ar    1  UNL1       -0.0015
      7 C          63.3589   90.1327   12.2591 C.ar    1  UNL1        0.0068
      8 C          66.1040   91.5213   14.8952 C.3     1  UNL1        0.1183
      9 N          66.9150   92.7335   14.5448 N.am    1  UNL1       -0.2956
     10 C          66.4909   93.1971   13.1827 C.2     1  UNL1        0.2636
     11 O          67.0430   94.3789   12.4421 O.2     1  UNL1       -0.2685
     12 H          67.6045   93.1515   15.1096 H       1  UNL1        0.1501
     13 C          63.9100   89.1306   14.5920 C.ar    1  UNL1        0.0102
     14 C          64.2203   87.6895   14.3146 C.ar    1  UNL1        0.0017
     15 C          63.9811   86.6537   15.3729 C.ar    1  UNL1        0.0114
     16 C          63.4318   87.0590   16.7084 C.ar    1  UNL1        0.0585
     17 CL         63.1926   86.0232   17.7667 Cl      1  UNL1       -0.0822
     18 C          63.1215   88.5001   16.9858 C.ar    1  UNL1        0.0228
     19 C          63.3607   89.5360   15.9275 C.ar    1  UNL1        0.0585
     20 CL         63.0504   90.9771   16.2049 Cl      1  UNL1       -0.0822
     21 C          62.3294   89.0633   12.0430 C.3     1  UNL1        0.0934
     22 N          60.8888   89.3338   12.3615 N.3     1  UNL1       -0.3174
     23 H          60.7829   89.4720   13.3666 H       1  UNL1        0.1192
     24 H          60.3204   88.5401   12.0658 H       1  UNL1        0.1192
@<TRIPOS>BOND
     1     1     2    1
     2     2     3   ar
     3     3     4   ar
     4     4     5   ar
     5     5     6   ar
     6     6    13    1
     7    13    14   ar
     8    14    15   ar
     9    15    16   ar
    10    16    17    1
    11    16    18   ar
    12    18    19   ar
    13    19    20    1
    14     6     7   ar
    15     7    21    1
    16    21    22    1
    17     5     8    1
    18     8     9    1
    19     9    10   am
    20    10    11    2
    21     7     2   ar
    22    10     4    1
    23    19    13   ar
    24    22    23    1
    25    22    24    1
    26     9    12    1
@<TRIPOS>MOLECULE
*****
 24 26 0 0 0
SMALL
GASTEIGER

@<TRIPOS>ATOM
      1 C          62.1529   90.9757   11.0123 C.3     1  UNL1        0.0518
      2 C          61.6764   89.7186   10.3470 C.ar    1  UNL1        0.0568
      3 N          60.6504   89.7905    9.2552 N.ar    1  UNL1       -0.2456
      4 C          60.1738   88.5335    8.5898 C.ar    1  UNL1        0.1316
      5 C          60.7233   87.2045    9.0162 C.ar    1  UNL1        0.0194
      6 C          61.7494   87.1325   10.1080 C.ar    1  UNL1       -0.0015
      7 C          62.2259   88.3897   10.7733 C.ar    1  UNL1        0.0068
      8 C          60.0681   86.1430    8.1831 C.3     1  UNL1        0.1183
      9 N          59.1136   86.8160    7.2419 N.am    1  UNL1       -0.2956
     10 C          59.1789   88.2934    7.4932 C.2     1  UNL1        0.2636
     11 O          58.3882   89.3459    6.7741 O.2     1  UNL1       -0.2685
     12 H          58.5442   86.3670    6.5760 H       1  UNL1        0.1501
     13 C          62.2990   85.8035   10.5344 C.ar    1  UNL1        0.0102
     14 C          62.0569   85.3042   11.9280 C.ar    1  UNL1        0.0017
     15 C          62.6064   83.9752   12.3546 C.ar    1  UNL1        0.0114
     16 C          63.3980   83.1457   11.3875 C.ar    1  UNL1        0.0585
     17 CL         63.9475   81.8168   11.8140 Cl      1  UNL1       -0.0822
     18 C          63.6401   83.6451    9.9939 C.ar    1  UNL1        0.0228
     19 C          63.0906   84.9740    9.5674 C.ar    1  UNL1        0.0585
     20 CL         63.3326   85.4734    8.1738 Cl      1  UNL1       -0.0822
     21 C          63.2520   88.3177   11.8652 C.3     1  UNL1        0.0934
     22 N          62.9722   88.9426   13.1998 N.3     1  UNL1       -0.3174
     23 H          62.9061   89.9549   13.0941 H       1  UNL1        0.1192
     24 H          63.7282   88.7168   13.8462 H       1  UNL1        0.1192
@<TRIPOS>BOND
     1     1     2    1
     2     2     3   ar
     3     3     4   ar
     4     4     5   ar
     5     5     6   ar
     6     6    13    1
     7    13    14   ar
     8    14    15   ar
     9    15    16   ar
    10    16    17    1
    11    16    18   ar
    12    18    19   ar
    13    19    20    1
    14     6     7   ar
    15     7    21    1
    16    21    22    1
    17     5     8    1
    18     8     9    1
    19     9    10   am
    20    10    11    2
    21     7     2   ar
    22    10     4    1
    23    19    13   ar
    24    22    23    1
    25    22    24    1
    26     9    12    1
@<TRIPOS>MOLECULE
*****
 24 26 0 0 0
SMALL
GASTEIGER

@<TRIPOS>ATOM
      1 C          63.1745   89.8411   12.3577 C.3     1  UNL1        0.0518
      2 C          64.1230   90.9493   12.7073 C.ar    1  UNL1        0.0568
      3 N          64.5369   91.1602   14.1335 N.ar    1  UNL1       -0.2456
      4 C          65.4854   92.2684   14.4832 C.ar    1  UNL1        0.1316
      5 C          66.0201   93.1657   13.4065 C.ar    1  UNL1        0.0194
      6 C          65.6062   92.9548   11.9803 C.ar    1  UNL1       -0.0015
      7 C          64.6576   91.8465   11.6307 C.ar    1  UNL1        0.0068
      8 C          66.9334   94.1673   14.0489 C.3     1  UNL1        0.1183
      9 N          66.9632   93.8891   15.5226 N.am    1  UNL1       -0.2956
     10 C          66.0683   92.7155   15.7910 C.2     1  UNL1        0.2636
     11 O          65.8030   92.0976   17.1318 O.2     1  UNL1       -0.2685
     12 H          67.4794   94.3889   16.1955 H       1  UNL1        0.1501
     13 C          66.1408   93.8520   10.9036 C.ar    1  UNL1        0.0102
     14 C          65.5135   95.1935   10.6653 C.ar    1  UNL1        0.0017
     15 C          66.0480   96.0908    9.5886 C.ar    1  UNL1        0.0114
     16 C          67.2098   95.6465    8.7503 C.ar    1  UNL1        0.0585
     17 CL         67.7443   96.5437    7.6736 Cl      1  UNL1       -0.0822
     18 C          67.8371   94.3049    8.9886 C.ar    1  UNL1        0.0228
     19 C          67.3025   93.4077   10.0653 C.ar    1  UNL1        0.0585
     20 CL         67.9298   92.0661   10.3036 Cl      1  UNL1       -0.0822
     21 C          64.2437   91.6356   10.2044 C.3     1  UNL1        0.0934
     22 N          62.7896   91.6452    9.8362 N.3     1  UNL1       -0.3174
     23 H          62.3240   90.8474   10.2688 H       1  UNL1        0.1192
     24 H          62.6953   91.5852    8.8223 H       1  UNL1        0.1192
@<TRIPOS>BOND
     1     1     2    1
     2     2     3   ar
     3     3     4   ar
     4     4     5   ar
     5     5     6   ar
     6     6    13    1
     7    13    14   ar
     8    14    15   ar
     9    15    16   ar
    10    16    17    1
    11    16    18   ar
    12    18    19   ar
    13    19    20    1
    14     6     7   ar
    15     7    21    1
    16    21    22    1
    17     5     8    1
    18     8     9    1
    19     9    10   am
    20    10    11    2
    21     7     2   ar
    22    10     4    1
    23    19    13   ar
    24    22    23    1
    25    22    24    1
    26     9    12    1
@<TRIPOS>MOLECULE
*****
 24 26 0 0 0
SMALL
GASTEIGER

@<TRIPOS>ATOM
      1 C          64.4422   89.4540   14.1299 C.3     1  UNL1        0.0518
      2 C          63.7302   88.4703   13.2492 C.ar    1  UNL1        0.0568
      3 N          62.9443   88.9542   12.0667 N.ar    1  UNL1       -0.2456
      4 C          62.2324   87.9706   11.1860 C.ar    1  UNL1        0.1316
      5 C          62.3062   86.5031   11.4878 C.ar    1  UNL1        0.0194
      6 C          63.0921   86.0193   12.6703 C.ar    1  UNL1       -0.0015
      7 C          63.8041   87.0029   13.5510 C.ar    1  UNL1        0.0068
      8 C          61.5066   85.7752   10.4482 C.3     1  UNL1        0.1183
      9 N          60.9385   86.7929    9.5039 N.am    1  UNL1       -0.2956
     10 C          61.3870   88.1497    9.9599 C.2     1  UNL1        0.2636
     11 O          61.0495   89.4561    9.3048 O.2     1  UNL1       -0.2685
     12 H          60.3709   86.6035    8.7221 H       1  UNL1        0.1501
     13 C          63.1660   84.5518   12.9721 C.ar    1  UNL1        0.0102
     14 C          64.0099   83.6521   12.1186 C.ar    1  UNL1        0.0017
     15 C          64.0839   82.1847   12.4204 C.ar    1  UNL1        0.0114
     16 C          63.3140   81.6169   13.5757 C.ar    1  UNL1        0.0585
     17 CL         63.3880   80.1495   13.8775 Cl      1  UNL1       -0.0822
     18 C          62.4702   82.5165   14.4293 C.ar    1  UNL1        0.0228
     19 C          62.3962   83.9840   14.1275 C.ar    1  UNL1        0.0585
     20 CL         61.5523   84.8836   14.9810 Cl      1  UNL1       -0.0822
     21 C          64.5900   86.5190   14.7335 C.3     1  UNL1        0.0934
     22 N          63.9794   86.5496   16.1032 N.3     1  UNL1       -0.3174
     23 H          63.8253   87.5176   16.3853 H       1  UNL1        0.1192
     24 H          64.6094   86.0984   16.7665 H       1  UNL1        0.1192
@<TRIPOS>BOND
     1     1     2    1
     2     2     3   ar
     3     3     4   ar
     4     4     5   ar
     5     5     6   ar
     6     6    13    1
     7    13    14   ar
     8    14    15   ar
     9    15    16   ar
    10    16    17    1
    11    16    18   ar
    12    18    19   ar
    13    19    20    1
    14     6     7   ar
    15     7    21    1
    16    21    22    1
    17     5     8    1
    18     8     9    1
    19     9    10   am
    20    10    11    2
    21     7     2   ar
    22    10     4    1
    23    19    13   ar
    24    22    23    1
    25    22    24    1
    26     9    12    1
@<TRIPOS>MOLECULE
*****
 24 26 0 0 0
SMALL
GASTEIGER

@<TRIPOS>ATOM
      1 C          63.1083   85.0165   12.8460 C.3     1  UNL1        0.0518
      2 C          62.9863   86.4746   12.5155 C.ar    1  UNL1        0.0568
      3 N          62.1678   86.9104   11.3365 N.ar    1  UNL1       -0.2456
      4 C          62.0458   88.3685   11.0060 C.ar    1  UNL1        0.1316
      5 C          62.7423   89.3907   11.8545 C.ar    1  UNL1        0.0194
      6 C          63.5608   88.9549   13.0336 C.ar    1  UNL1       -0.0015
      7 C          63.6827   87.4968   13.3640 C.ar    1  UNL1        0.0068
      8 C          62.4411   90.7465   11.2879 C.3     1  UNL1        0.1183
      9 N          61.5585   90.5622   10.0892 N.am    1  UNL1       -0.2956
     10 C          61.3142   89.0925    9.9149 C.2     1  UNL1        0.2636
     11 O          60.4840   88.4583    8.8386 O.2     1  UNL1       -0.2685
     12 H          61.2021   91.2798    9.5172 H       1  UNL1        0.1501
     13 C          64.2573   89.9771   13.8822 C.ar    1  UNL1        0.0102
     14 C          65.4840   90.6695   13.3668 C.ar    1  UNL1        0.0017
     15 C          66.1805   91.6917   14.2154 C.ar    1  UNL1        0.0114
     16 C          65.6503   92.0213   15.5792 C.ar    1  UNL1        0.0585
     17 CL         66.3469   93.0435   16.4277 Cl      1  UNL1       -0.0822
     18 C          64.4236   91.3289   16.0945 C.ar    1  UNL1        0.0228
     19 C          63.7270   90.3067   15.2460 C.ar    1  UNL1        0.0585
     20 CL         62.5003   89.6143   15.7614 Cl      1  UNL1       -0.0822
     21 C          64.5013   87.0609   14.5431 C.3     1  UNL1        0.0934
     22 N          63.8226   86.5549   15.7814 N.3     1  UNL1       -0.3174
     23 H          63.2925   87.3124   16.2122 H       1  UNL1        0.1192
     24 H          64.5243   86.2143   16.4387 H       1  UNL1        0.1192
@<TRIPOS>BOND
     1     1     2    1
     2     2     3   ar
     3     3     4   ar
     4     4     5   ar
     5     5     6   ar
     6     6    13    1
     7    13    14   ar
     8    14    15   ar
     9    15    16   ar
    10    16    17    1
    11    16    18   ar
    12    18    19   ar
    13    19    20    1
    14     6     7   ar
    15     7    21    1
    16    21    22    1
    17     5     8    1
    18     8     9    1
    19     9    10   am
    20    10    11    2
    21     7     2   ar
    22    10     4    1
    23    19    13   ar
    24    22    23    1
    25    22    24    1
    26     9    12    1
@<TRIPOS>MOLECULE
*****
 24 26 0 0 0
SMALL
GASTEIGER

@<TRIPOS>ATOM
      1 C          61.4657   88.6156    9.9066 C.3     1  UNL1        0.0518
      2 C          62.1621   87.8964   11.0238 C.ar    1  UNL1        0.0568
      3 N          62.9019   88.6750   12.0708 N.ar    1  UNL1       -0.2456
      4 C          63.5982   87.9559   13.1880 C.ar    1  UNL1        0.1316
      5 C          63.5548   86.4581   13.2580 C.ar    1  UNL1        0.0194
      6 C          62.8150   85.6795   12.2109 C.ar    1  UNL1       -0.0015
      7 C          62.1186   86.3988   11.0937 C.ar    1  UNL1        0.0068
      8 C          64.3299   86.0279   14.4679 C.3     1  UNL1        0.1183
      9 N          64.8524   87.2598   15.1457 N.am    1  UNL1       -0.2956
     10 C          64.4003   88.4514   14.3547 C.2     1  UNL1        0.2636
     11 O          64.6979   89.8864   14.6743 O.2     1  UNL1       -0.2685
     12 H          65.3967   87.2823   15.9658 H       1  UNL1        0.1501
     13 C          62.7714   84.1818   12.2808 C.ar    1  UNL1        0.0102
     14 C          62.0657   83.5043   13.4179 C.ar    1  UNL1        0.0017
     15 C          62.0221   82.0066   13.4879 C.ar    1  UNL1        0.0114
     16 C          62.6843   81.1864   12.4208 C.ar    1  UNL1        0.0585
     17 CL         62.6408   79.6886   12.4908 Cl      1  UNL1       -0.0822
     18 C          63.3901   81.8638   11.2838 C.ar    1  UNL1        0.0228
     19 C          63.4337   83.3616   11.2137 C.ar    1  UNL1        0.0585
     20 CL         64.1395   84.0390   10.0767 Cl      1  UNL1       -0.0822
     21 C          61.3787   85.6201   10.0466 C.3     1  UNL1        0.0934
     22 N          61.7494   85.7677    8.6006 N.3     1  UNL1       -0.3174
     23 H          61.5369   86.7158    8.2902 H       1  UNL1        0.1192
     24 H          61.2165   85.1000    8.0432 H       1  UNL1        0.1192
@<TRIPOS>BOND
     1     1     2    1
     2     2     3   ar
     3     3     4   ar
     4     4     5   ar
     5     5     6   ar
     6     6    13    1
     7    13    14   ar
     8    14    15   ar
     9    15    16   ar
    10    16    17    1
    11    16    18   ar
    12    18    19   ar
    13    19    20    1
    14     6     7   ar
    15     7    21    1
    16    21    22    1
    17     5     8    1
    18     8     9    1
    19     9    10   am
    20    10    11    2
    21     7     2   ar
    22    10     4    1
    23    19    13   ar
    24    22    23    1
    25    22    24    1
    26     9    12    1
@<TRIPOS>MOLECULE
*****
 24 26 0 0 0
SMALL
GASTEIGER

@<TRIPOS>ATOM
      1 C          59.0759   92.3674   -0.8164 C.3     1  UNL1        0.0518
      2 C          60.5054   92.7502   -0.5710 C.ar    1  UNL1        0.0568
      3 N          61.1655   92.3915    0.7273 N.ar    1  UNL1       -0.2456
      4 C          62.5949   92.7743    0.9728 C.ar    1  UNL1        0.1316
      5 C          63.3642   93.5158   -0.0800 C.ar    1  UNL1        0.0194
      6 C          62.7041   93.8746   -1.3783 C.ar    1  UNL1       -0.0015
      7 C          61.2746   93.4917   -1.6237 C.ar    1  UNL1        0.0068
      8 C          64.7493   93.7582    0.4423 C.3     1  UNL1        0.1183
      9 N          64.8360   93.1665    1.8179 N.am    1  UNL1       -0.2956
     10 C          63.5046   92.5584    2.1458 C.2     1  UNL1        0.2636
     11 O          63.1458   91.8575    3.4225 O.2     1  UNL1       -0.2685
     12 H          65.6278   93.1756    2.4029 H       1  UNL1        0.1501
     13 C          63.4733   94.6161   -2.4312 C.ar    1  UNL1        0.0102
     14 C          63.5894   96.1100   -2.3626 C.ar    1  UNL1        0.0017
     15 C          64.3586   96.8516   -3.4154 C.ar    1  UNL1        0.0114
     16 C          65.0117   96.0992   -4.5367 C.ar    1  UNL1        0.0585
     17 CL         65.7809   96.8408   -5.5895 Cl      1  UNL1       -0.0822
     18 C          64.8956   94.6053   -4.6053 C.ar    1  UNL1        0.0228
     19 C          64.1264   93.8637   -3.5525 C.ar    1  UNL1        0.0585
     20 CL         64.0103   92.3698   -3.6210 Cl      1  UNL1       -0.0822
     21 C          60.6145   93.8505   -2.9221 C.3     1  UNL1        0.0934
     22 N          59.8732   95.1479   -3.0532 N.3     1  UNL1       -0.3174
     23 H          59.0555   95.1354   -2.4437 H       1  UNL1        0.1192
     24 H          59.5745   95.2725   -4.0205 H       1  UNL1        0.1192
@<TRIPOS>BOND
     1     1     2    1
     2     2     3   ar
     3     3     4   ar
     4     4     5   ar
     5     5     6   ar
     6     6    13    1
     7    13    14   ar
     8    14    15   ar
     9    15    16   ar
    10    16    17    1
    11    16    18   ar
    12    18    19   ar
    13    19    20    1
    14     6     7   ar
    15     7    21    1
    16    21    22    1
    17     5     8    1
    18     8     9    1
    19     9    10   am
    20    10    11    2
    21     7     2   ar
    22    10     4    1
    23    19    13   ar
    24    22    23    1
    25    22    24    1
    26     9    12    1
@<TRIPOS>MOLECULE
*****
 24 26 0 0 0
SMALL
GASTEIGER

@<TRIPOS>ATOM
      1 C          63.4702   80.6884   11.2387 C.3     1  UNL1        0.0518
      2 C          63.2248   82.1569   11.4215 C.ar    1  UNL1        0.0568
      3 N          63.0089   83.0358   10.2253 N.ar    1  UNL1       -0.2456
      4 C          62.7635   84.5043   10.4081 C.ar    1  UNL1        0.1316
      5 C          62.7340   85.0938   11.7870 C.ar    1  UNL1        0.0194
      6 C          62.9499   84.2150   12.9833 C.ar    1  UNL1       -0.0015
      7 C          63.1953   82.7465   12.8004 C.ar    1  UNL1        0.0068
      8 C          62.4715   86.5649   11.6567 C.3     1  UNL1        0.1183
      9 N          62.3389   86.8845   10.1972 N.am    1  UNL1       -0.2956
     10 C          62.5193   85.6110    9.4255 C.2     1  UNL1        0.2636
     11 O          62.4650   85.4691    7.9332 O.2     1  UNL1       -0.2685
     12 H          62.1641   87.7740    9.8132 H       1  UNL1        0.1501
     13 C          62.9204   84.8045   14.3623 C.ar    1  UNL1        0.0102
     14 C          61.6232   84.9004   15.1093 C.ar    1  UNL1        0.0017
     15 C          61.5936   85.4899   16.4883 C.ar    1  UNL1        0.0114
     16 C          62.8612   85.9834   17.1202 C.ar    1  UNL1        0.0585
     17 CL         62.8316   86.5729   18.4992 Cl      1  UNL1       -0.0822
     18 C          64.1585   85.8875   16.3732 C.ar    1  UNL1        0.0228
     19 C          64.1880   85.2980   14.9942 C.ar    1  UNL1        0.0585
     20 CL         65.4853   85.2021   14.2473 Cl      1  UNL1       -0.0822
     21 C          63.4112   81.8675   13.9967 C.3     1  UNL1        0.0934
     22 N          62.2401   81.2132   14.6678 N.3     1  UNL1       -0.3174
     23 H          61.6451   81.9281   15.0865 H       1  UNL1        0.1192
     24 H          62.5746   80.5808   15.3948 H       1  UNL1        0.1192
@<TRIPOS>BOND
     1     1     2    1
     2     2     3   ar
     3     3     4   ar
     4     4     5   ar
     5     5     6   ar
     6     6    13    1
     7    13    14   ar
     8    14    15   ar
     9    15    16   ar
    10    16    17    1
    11    16    18   ar
    12    18    19   ar
    13    19    20    1
    14     6     7   ar
    15     7    21    1
    16    21    22    1
    17     5     8    1
    18     8     9    1
    19     9    10   am
    20    10    11    2
    21     7     2   ar
    22    10     4    1
    23    19    13   ar
    24    22    23    1
    25    22    24    1
    26     9    12    1
