@<TRIPOS>MOLECULE
*****
 36 39 0 0 0
SMALL
GASTEIGER

@<TRIPOS>ATOM
      1 C          64.2501   88.1857   15.0133 C.ar    1  UNL1        0.0527
      2 C          63.6075   88.2509   16.3672 C.ar    1  UNL1        0.0466
      3 C          62.9836   87.0229   16.9611 C.ar    1  UNL1        0.1684
      4 F          62.3410   87.0881   18.3149 F       1  UNL1       -0.2018
      5 C          63.0022   85.7297   16.2012 C.ar    1  UNL1        0.1652
      6 F          62.3782   84.5018   16.7952 F       1  UNL1       -0.2021
      7 C          63.6448   85.6646   14.8474 C.ar    1  UNL1        0.0288
      8 C          64.2687   86.8925   14.2535 C.ar    1  UNL1        0.0146
      9 C          63.6634   84.3714   14.0875 C.3     1  UNL1        0.1081
     10 C          64.2737   83.9218   15.3819 C.3     1  UNL1        0.0291
     11 N          63.8940   82.9221   13.7772 N.2     1  UNL1       -0.2509
     12 C          63.5078   82.3715   12.4364 C.2     1  UNL1        0.1482
     13 N          63.7384   80.9222   12.1260 N.pl3   1  UNL1       -0.3380
     14 S          62.8910   83.2702   11.4060 S.3     1  UNL1       -0.0800
     15 C          62.6603   84.7196   11.7163 C.3     1  UNL1        0.0752
     16 C          62.4297   86.1689   12.0266 C.3     1  UNL1        0.0160
     17 C          63.0466   85.2702   13.0570 C.3     1  UNL1        0.0375
     18 H          64.1432   80.3324   12.8023 H       1  UNL1        0.1442
     19 H          63.4849   80.5609   11.2460 H       1  UNL1        0.1442
     20 C          62.0812   84.9206   10.3473 C.3     1  UNL1        0.1525
     21 O          61.0437   85.9798   10.1199 O.3     1  UNL1       -0.3502
     22 C          60.6152   86.3225    8.7238 C.3     1  UNL1        0.1741
     23 C          64.0932   90.2627   13.4604 C.2     1  UNL1        0.2688
     24 O          62.6885   89.8837   13.0955 O.2     1  UNL1       -0.2681
     25 N          64.8740   89.4136   14.4194 N.am    1  UNL1       -0.2790
     26 H          65.7960   89.6623   14.6590 H       1  UNL1        0.1552
     27 C          65.9651   93.9466   11.6786 C.ar    1  UNL1        0.2457
     28 C          66.1928   93.6135   13.1233 C.ar    1  UNL1        0.1566
     29 N          65.5688   92.3855   13.7172 N.ar    1  UNL1       -0.2328
     30 C          64.7172   91.4906   12.8665 C.ar    1  UNL1        0.1541
     31 C          64.4894   91.8238   11.4217 C.ar    1  UNL1        0.1258
     32 N          65.1134   93.0517   10.8278 N.ar    1  UNL1       -0.2070
     33 O          66.5890   95.1746   11.0847 O.3     1  UNL1       -0.4444
     34 C          67.3154   95.0882    9.7752 C.3     1  UNL1        0.2838
     35 C          68.6720   92.5340    8.9778 C.1     1  UNL1       -0.0105
     36 C          67.9936   93.8111    9.3765 C.1     1  UNL1       -0.0306
@<TRIPOS>BOND
     1    35    36    3
     2    36    34    1
     3    34    33    1
     4    33    27    1
     5    27    28   ar
     6    28    29   ar
     7    29    30   ar
     8    30    23    1
     9    23    24    2
    10    23    25   am
    11    25     1    1
    12     1     2   ar
    13     2     3   ar
    14     3     4    1
    15     3     5   ar
    16     5     6    1
    17     5     7   ar
    18     7     9    1
    19     9    10    1
    20     9    11    1
    21    11    12    2
    22    12    13    1
    23    12    14    1
    24    14    15    1
    25    15    20    1
    26    20    21    1
    27    21    22    1
    28    15    16    1
    29    17    16    1
    30     7     8   ar
    31    30    31   ar
    32    31    32   ar
    33    32    27   ar
    34     8     1   ar
    35    17     9    1
    36    17    15    1
    37    25    26    1
    38    13    18    1
    39    13    19    1
@<TRIPOS>MOLECULE
*****
 36 39 0 0 0
SMALL
GASTEIGER

@<TRIPOS>ATOM
      1 C          62.1307   89.1768    9.5355 C.ar    1  UNL1        0.0527
      2 C          60.7486   89.2930    8.9644 C.ar    1  UNL1        0.0466
      3 C          59.9768   88.0564    8.6107 C.ar    1  UNL1        0.1684
      4 F          58.5947   88.1725    8.0395 F       1  UNL1       -0.2018
      5 C          60.5872   86.7035    8.8281 C.ar    1  UNL1        0.1652
      6 F          59.8154   85.4669    8.4744 F       1  UNL1       -0.2021
      7 C          61.9694   86.5874    9.3993 C.ar    1  UNL1        0.0288
      8 C          62.7411   87.8240    9.7530 C.ar    1  UNL1        0.0146
      9 C          62.5797   85.2345    9.6167 C.3     1  UNL1        0.1081
     10 C          62.6598   85.3191    8.1213 C.3     1  UNL1        0.0291
     11 N          63.2179   83.9110    9.3148 N.2     1  UNL1       -0.2509
     12 C          63.5640   82.9728   10.4329 C.2     1  UNL1        0.1482
     13 N          64.2022   81.6494   10.1310 N.pl3   1  UNL1       -0.3380
     14 S          63.2719   83.3581   11.8528 S.3     1  UNL1       -0.0800
     15 C          62.6337   84.6816   12.1548 C.3     1  UNL1        0.0752
     16 C          61.9955   86.0050   12.4567 C.3     1  UNL1        0.0160
     17 C          62.2876   85.6198   11.0367 C.3     1  UNL1        0.0375
     18 H          64.3939   81.3965    9.1990 H       1  UNL1        0.1442
     19 H          64.4293   81.0336   10.8648 H       1  UNL1        0.1442
     20 C          62.6648   84.3623   13.6200 C.3     1  UNL1        0.1525
     21 O          63.0637   85.4171   14.6091 O.3     1  UNL1       -0.3502
     22 C          64.4834   85.4991   15.0866 C.3     1  UNL1        0.1741
     23 C          63.5741   90.5217   11.2261 C.2     1  UNL1        0.2688
     24 O          63.4739   89.3933   12.2092 O.2     1  UNL1       -0.2681
     25 N          62.9024   90.4135    9.8892 N.am    1  UNL1       -0.2790
     26 H          62.9681   91.1541    9.2439 H       1  UNL1        0.1552
     27 C          65.8893   94.2317   12.2871 C.ar    1  UNL1        0.2457
     28 C          65.3908   94.0336   10.8863 C.ar    1  UNL1        0.1566
     29 N          64.6191   92.7970   10.5327 N.ar    1  UNL1       -0.2328
     30 C          64.3458   91.7583   11.5798 C.ar    1  UNL1        0.1541
     31 C          64.8443   91.9563   12.9807 C.ar    1  UNL1        0.1258
     32 N          65.6160   93.1930   13.3343 N.ar    1  UNL1       -0.2070
     33 O          66.6610   95.4683   12.6408 O.3     1  UNL1       -0.4444
     34 C          66.4593   96.7290   11.8535 C.3     1  UNL1        0.2838
     35 C          67.3124   96.8559    8.9801 C.1     1  UNL1       -0.0105
     36 C          66.8858   96.7925   10.4168 C.1     1  UNL1       -0.0306
@<TRIPOS>BOND
     1    35    36    3
     2    36    34    1
     3    34    33    1
     4    33    27    1
     5    27    28   ar
     6    28    29   ar
     7    29    30   ar
     8    30    23    1
     9    23    24    2
    10    23    25   am
    11    25     1    1
    12     1     2   ar
    13     2     3   ar
    14     3     4    1
    15     3     5   ar
    16     5     6    1
    17     5     7   ar
    18     7     9    1
    19     9    10    1
    20     9    11    1
    21    11    12    2
    22    12    13    1
    23    12    14    1
    24    14    15    1
    25    15    20    1
    26    20    21    1
    27    21    22    1
    28    15    16    1
    29    17    16    1
    30     7     8   ar
    31    30    31   ar
    32    31    32   ar
    33    32    27   ar
    34     8     1   ar
    35    17     9    1
    36    17    15    1
    37    25    26    1
    38    13    18    1
    39    13    19    1
@<TRIPOS>MOLECULE
*****
 36 39 0 0 0
SMALL
GASTEIGER

@<TRIPOS>ATOM
      1 C          62.3763   89.1323   10.2697 C.ar    1  UNL1        0.0527
      2 C          61.0721   89.4094    9.5826 C.ar    1  UNL1        0.0466
      3 C          60.2883   88.2822    8.9783 C.ar    1  UNL1        0.1684
      4 F          58.9841   88.5594    8.2911 F       1  UNL1       -0.2018
      5 C          60.8088   86.8778    9.0612 C.ar    1  UNL1        0.1652
      6 F          60.0250   85.7507    8.4569 F       1  UNL1       -0.2021
      7 C          62.1130   86.6007    9.7484 C.ar    1  UNL1        0.0288
      8 C          62.8967   87.7279   10.3526 C.ar    1  UNL1        0.0146
      9 C          62.6335   85.1963    9.8312 C.3     1  UNL1        0.1081
     10 C          62.7440   85.4283    8.3535 C.3     1  UNL1        0.0291
     11 N          63.1923   83.8725    9.4009 N.2     1  UNL1       -0.2509
     12 C          63.4599   82.8045   10.4196 C.2     1  UNL1        0.1482
     13 N          64.0187   81.4807    9.9892 N.pl3   1  UNL1       -0.3380
     14 S          63.1686   83.0602   11.8686 S.3     1  UNL1       -0.0800
     15 C          62.6097   84.3841   12.2990 C.3     1  UNL1        0.0752
     16 C          62.0509   85.7079   12.7294 C.3     1  UNL1        0.0160
     17 C          62.3422   85.4521   11.2803 C.3     1  UNL1        0.0375
     18 H          64.2099   81.3128    9.0382 H       1  UNL1        0.1442
     19 H          64.1943   80.7797   10.6578 H       1  UNL1        0.1442
     20 C          62.5960   83.9151   13.7237 C.3     1  UNL1        0.1525
     21 O          62.6630   84.9124   14.8422 O.3     1  UNL1       -0.3502
     22 C          63.9286   85.0697   15.6320 C.3     1  UNL1        0.1741
     23 C          63.7543   90.1103   12.2432 C.2     1  UNL1        0.2688
     24 O          63.5648   88.8339   13.0080 O.2     1  UNL1       -0.2681
     25 N          63.1600   90.2595   10.8740 N.am    1  UNL1       -0.2790
     26 H          63.2843   91.0972   10.3720 H       1  UNL1        0.1552
     27 C          66.1055   93.4919   14.0560 C.ar    1  UNL1        0.2457
     28 C          66.0553   93.3275   12.5660 C.ar    1  UNL1        0.1566
     29 N          65.2716   92.2004   11.9617 N.ar    1  UNL1       -0.2328
     30 C          64.5380   91.2374   12.8475 C.ar    1  UNL1        0.1541
     31 C          64.5882   91.4018   14.3377 C.ar    1  UNL1        0.1258
     32 N          65.3719   92.5289   14.9419 N.ar    1  UNL1       -0.2070
     33 O          66.8892   94.6191   14.6603 O.3     1  UNL1       -0.4444
     34 C          68.2038   94.3448   15.3287 C.3     1  UNL1        0.2838
     35 C          68.7672   91.6291   16.4722 C.1     1  UNL1       -0.0105
     36 C          68.4856   92.9869   15.9005 C.1     1  UNL1       -0.0306
@<TRIPOS>BOND
     1    35    36    3
     2    36    34    1
     3    34    33    1
     4    33    27    1
     5    27    28   ar
     6    28    29   ar
     7    29    30   ar
     8    30    23    1
     9    23    24    2
    10    23    25   am
    11    25     1    1
    12     1     2   ar
    13     2     3   ar
    14     3     4    1
    15     3     5   ar
    16     5     6    1
    17     5     7   ar
    18     7     9    1
    19     9    10    1
    20     9    11    1
    21    11    12    2
    22    12    13    1
    23    12    14    1
    24    14    15    1
    25    15    20    1
    26    20    21    1
    27    21    22    1
    28    15    16    1
    29    17    16    1
    30     7     8   ar
    31    30    31   ar
    32    31    32   ar
    33    32    27   ar
    34     8     1   ar
    35    17     9    1
    36    17    15    1
    37    25    26    1
    38    13    18    1
    39    13    19    1
@<TRIPOS>MOLECULE
*****
 36 39 0 0 0
SMALL
GASTEIGER

@<TRIPOS>ATOM
      1 C          62.6490   87.9824   11.8381 C.ar    1  UNL1        0.0527
      2 C          61.6995   88.5649   10.8335 C.ar    1  UNL1        0.0466
      3 C          61.6541   90.0484   10.6167 C.ar    1  UNL1        0.1684
      4 F          60.7047   90.6309    9.6121 F       1  UNL1       -0.2018
      5 C          62.5582   90.9495   11.4045 C.ar    1  UNL1        0.1652
      6 F          62.5128   92.4331   11.1877 F       1  UNL1       -0.2021
      7 C          63.5077   90.3671   12.4091 C.ar    1  UNL1        0.0288
      8 C          63.5531   88.8836   12.6259 C.ar    1  UNL1        0.0146
      9 C          64.4118   91.2682   13.1970 C.3     1  UNL1        0.1081
     10 C          63.6879   90.5816   14.3170 C.3     1  UNL1        0.0291
     11 N          65.0645   91.9309   14.3737 N.2     1  UNL1       -0.2509
     12 C          66.1270   92.9672   14.1569 C.2     1  UNL1        0.1482
     13 N          66.7797   93.6299   15.3336 N.pl3   1  UNL1       -0.3380
     14 S          66.5369   93.3408   12.7632 S.3     1  UNL1       -0.0800
     15 C          65.8842   92.6782   11.5863 C.3     1  UNL1        0.0752
     16 C          65.2316   92.0155   10.4096 C.3     1  UNL1        0.0160
     17 C          64.8217   91.6419   11.8032 C.3     1  UNL1        0.0375
     18 H          66.5107   93.3846   16.2484 H       1  UNL1        0.1442
     19 H          67.4771   94.3100   15.1913 H       1  UNL1        0.1442
     20 C          66.7343   93.4922   10.6565 C.3     1  UNL1        0.1525
     21 O          68.1594   93.0978   10.4041 O.3     1  UNL1       -0.3502
     22 C          68.5953   92.7034    9.0240 C.3     1  UNL1        0.1741
     23 C          63.3826   85.9383   13.2642 C.2     1  UNL1        0.2688
     24 O          64.0253   86.8614   14.2565 O.2     1  UNL1       -0.2681
     25 N          62.6944   86.4989   12.0549 N.am    1  UNL1       -0.2790
     26 H          62.2725   85.8931   11.4035 H       1  UNL1        0.1552
     27 C          63.5189   81.4877   13.9145 C.ar    1  UNL1        0.2457
     28 C          64.0263   82.0740   12.6305 C.ar    1  UNL1        0.1566
     29 N          63.9809   83.5575   12.4137 N.ar    1  UNL1       -0.2328
     30 C          63.4280   84.4548   13.4810 C.ar    1  UNL1        0.1541
     31 C          62.9206   83.8686   14.7651 C.ar    1  UNL1        0.1258
     32 N          62.9660   82.3851   14.9819 N.ar    1  UNL1       -0.2070
     33 O          63.5643   80.0042   14.1313 O.3     1  UNL1       -0.4444
     34 C          62.3412   79.1721   13.8827 C.3     1  UNL1        0.2838
     35 C          59.6145   80.3895   14.1714 C.1     1  UNL1       -0.0105
     36 C          60.9779   79.7808   14.0271 C.1     1  UNL1       -0.0306
@<TRIPOS>BOND
     1    35    36    3
     2    36    34    1
     3    34    33    1
     4    33    27    1
     5    27    28   ar
     6    28    29   ar
     7    29    30   ar
     8    30    23    1
     9    23    24    2
    10    23    25   am
    11    25     1    1
    12     1     2   ar
    13     2     3   ar
    14     3     4    1
    15     3     5   ar
    16     5     6    1
    17     5     7   ar
    18     7     9    1
    19     9    10    1
    20     9    11    1
    21    11    12    2
    22    12    13    1
    23    12    14    1
    24    14    15    1
    25    15    20    1
    26    20    21    1
    27    21    22    1
    28    15    16    1
    29    17    16    1
    30     7     8   ar
    31    30    31   ar
    32    31    32   ar
    33    32    27   ar
    34     8     1   ar
    35    17     9    1
    36    17    15    1
    37    25    26    1
    38    13    18    1
    39    13    19    1
@<TRIPOS>MOLECULE
*****
 36 39 0 0 0
SMALL
GASTEIGER

@<TRIPOS>ATOM
      1 C          63.7035   86.0391   13.6826 C.ar    1  UNL1        0.0527
      2 C          63.2846   84.8797   14.5372 C.ar    1  UNL1        0.0466
      3 C          62.6936   83.6555   13.9031 C.ar    1  UNL1        0.1684
      4 F          62.2747   82.4961   14.7576 F       1  UNL1       -0.2018
      5 C          62.5216   83.5907   12.4143 C.ar    1  UNL1        0.1652
      6 F          61.9306   82.3664   11.7803 F       1  UNL1       -0.2021
      7 C          62.9405   84.7501   11.5598 C.ar    1  UNL1        0.0288
      8 C          63.5315   85.9742   12.1939 C.ar    1  UNL1        0.0146
      9 C          62.7685   84.6852   10.0710 C.3     1  UNL1        0.1081
     10 C          63.8702   83.6831   10.2499 C.3     1  UNL1        0.0291
     11 N          62.9791   84.2723    8.6445 N.2     1  UNL1       -0.2509
     12 C          62.1477   84.8841    7.5561 C.2     1  UNL1        0.1482
     13 N          62.3583   84.4713    6.1295 N.pl3   1  UNL1       -0.3380
     14 S          61.1058   85.9088    7.8943 S.3     1  UNL1       -0.0800
     15 C          60.8952   86.3217    9.3209 C.3     1  UNL1        0.0752
     16 C          60.6846   86.7346   10.7475 C.3     1  UNL1        0.0160
     17 C          61.7265   85.7099   10.4093 C.3     1  UNL1        0.0375
     18 H          63.0421   83.7987    5.9075 H       1  UNL1        0.1442
     19 H          61.8126   84.8728    5.4152 H       1  UNL1        0.1442
     20 C          59.8136   87.2665    8.8879 C.3     1  UNL1        0.1525
     21 O          60.1727   88.6028    8.3087 O.3     1  UNL1       -0.3502
     22 C          59.3959   89.1505    7.1482 C.3     1  UNL1        0.1741
     23 C          63.9360   88.6242   13.7975 C.2     1  UNL1        0.2688
     24 O          62.9866   88.7608   12.6443 O.2     1  UNL1       -0.2681
     25 N          64.2945   87.2632   14.3167 N.am    1  UNL1       -0.2790
     26 H          64.9176   87.1735   15.0736 H       1  UNL1        0.1552
     27 C          65.7090   92.2968   15.6998 C.ar    1  UNL1        0.2457
     28 C          66.3760   91.6717   14.5105 C.ar    1  UNL1        0.1566
     29 N          65.7850   90.4476   13.8765 N.ar    1  UNL1       -0.2328
     30 C          64.5270   89.8484   14.4316 C.ar    1  UNL1        0.1541
     31 C          63.8599   90.4734   15.6209 C.ar    1  UNL1        0.1258
     32 N          64.4508   91.6975   16.2550 N.ar    1  UNL1       -0.2070
     33 O          66.2999   93.5209   16.3339 O.3     1  UNL1       -0.4444
     34 C          67.6865   93.9604   15.9674 C.3     1  UNL1        0.2838
     35 C          70.0152   92.1302   16.4441 C.1     1  UNL1       -0.0105
     36 C          68.8509   93.0453   16.2057 C.1     1  UNL1       -0.0306
@<TRIPOS>BOND
     1    35    36    3
     2    36    34    1
     3    34    33    1
     4    33    27    1
     5    27    28   ar
     6    28    29   ar
     7    29    30   ar
     8    30    23    1
     9    23    24    2
    10    23    25   am
    11    25     1    1
    12     1     2   ar
    13     2     3   ar
    14     3     4    1
    15     3     5   ar
    16     5     6    1
    17     5     7   ar
    18     7     9    1
    19     9    10    1
    20     9    11    1
    21    11    12    2
    22    12    13    1
    23    12    14    1
    24    14    15    1
    25    15    20    1
    26    20    21    1
    27    21    22    1
    28    15    16    1
    29    17    16    1
    30     7     8   ar
    31    30    31   ar
    32    31    32   ar
    33    32    27   ar
    34     8     1   ar
    35    17     9    1
    36    17    15    1
    37    25    26    1
    38    13    18    1
    39    13    19    1
@<TRIPOS>MOLECULE
*****
 36 39 0 0 0
SMALL
GASTEIGER

@<TRIPOS>ATOM
      1 C          61.4295   87.7975   11.6098 C.ar    1  UNL1        0.0527
      2 C          60.0490   88.3823   11.5626 C.ar    1  UNL1        0.0466
      3 C          59.8665   89.8619   11.3973 C.ar    1  UNL1        0.1684
      4 F          58.4860   90.4467   11.3500 F       1  UNL1       -0.2018
      5 C          61.0646   90.7569   11.2793 C.ar    1  UNL1        0.1652
      6 F          60.8820   92.2365   11.1140 F       1  UNL1       -0.2021
      7 C          62.4450   90.1721   11.3266 C.ar    1  UNL1        0.0288
      8 C          62.6275   88.6925   11.4918 C.ar    1  UNL1        0.0146
      9 C          63.6431   91.0670   11.2085 C.3     1  UNL1        0.1081
     10 C          63.1704   91.0753    9.7850 C.3     1  UNL1        0.0291
     11 N          64.6770   91.9648   10.5962 N.2     1  UNL1       -0.2509
     12 C          65.7674   92.5434   11.4483 C.2     1  UNL1        0.1482
     13 N          66.8012   93.4412   10.8359 N.pl3   1  UNL1       -0.3380
     14 S          65.8240   92.2242   12.9128 S.3     1  UNL1       -0.0800
     15 C          64.7901   91.3264   13.5253 C.3     1  UNL1        0.0752
     16 C          63.7562   90.4286   14.1377 C.3     1  UNL1        0.0160
     17 C          63.6996   90.7478   12.6732 C.3     1  UNL1        0.0375
     18 H          66.7641   93.6507    9.8747 H       1  UNL1        0.1442
     19 H          67.5169   93.8210   11.3952 H       1  UNL1        0.1442
     20 C          65.4522   91.4762   14.8628 C.3     1  UNL1        0.1525
     21 O          65.9360   92.8226   15.3137 O.3     1  UNL1       -0.3502
     22 C          67.1368   92.9277   16.2066 C.3     1  UNL1        0.1741
     23 C          62.6554   85.7913   12.7154 C.2     1  UNL1        0.2688
     24 O          63.5162   86.7444   13.4903 O.2     1  UNL1       -0.2681
     25 N          61.6119   86.3179   11.7751 N.am    1  UNL1       -0.2790
     26 H          61.0469   85.6924   11.2665 H       1  UNL1        0.1552
     27 C          63.2028   81.3523   13.2112 C.ar    1  UNL1        0.2457
     28 C          62.9261   81.9269   11.8536 C.ar    1  UNL1        0.1566
     29 N          62.7436   83.4065   11.6883 N.ar    1  UNL1       -0.2328
     30 C          62.8378   84.3117   12.8807 C.ar    1  UNL1        0.1541
     31 C          63.1145   83.7371   14.2384 C.ar    1  UNL1        0.1258
     32 N          63.2970   82.2575   14.4037 N.ar    1  UNL1       -0.2070
     33 O          63.3853   79.8727   13.3765 O.3     1  UNL1       -0.4444
     34 C          62.2012   78.9987   13.6664 C.3     1  UNL1        0.2838
     35 C          59.5281   80.2352   14.2376 C.1     1  UNL1       -0.0105
     36 C          60.8646   79.6170   13.9520 C.1     1  UNL1       -0.0306
@<TRIPOS>BOND
     1    35    36    3
     2    36    34    1
     3    34    33    1
     4    33    27    1
     5    27    28   ar
     6    28    29   ar
     7    29    30   ar
     8    30    23    1
     9    23    24    2
    10    23    25   am
    11    25     1    1
    12     1     2   ar
    13     2     3   ar
    14     3     4    1
    15     3     5   ar
    16     5     6    1
    17     5     7   ar
    18     7     9    1
    19     9    10    1
    20     9    11    1
    21    11    12    2
    22    12    13    1
    23    12    14    1
    24    14    15    1
    25    15    20    1
    26    20    21    1
    27    21    22    1
    28    15    16    1
    29    17    16    1
    30     7     8   ar
    31    30    31   ar
    32    31    32   ar
    33    32    27   ar
    34     8     1   ar
    35    17     9    1
    36    17    15    1
    37    25    26    1
    38    13    18    1
    39    13    19    1
@<TRIPOS>MOLECULE
*****
 36 39 0 0 0
SMALL
GASTEIGER

@<TRIPOS>ATOM
      1 C          62.6621   87.2063   12.2364 C.ar    1  UNL1        0.0527
      2 C          63.6401   87.9559   13.0917 C.ar    1  UNL1        0.0466
      3 C          64.3508   87.2533   14.2102 C.ar    1  UNL1        0.1684
      4 F          65.3287   88.0029   15.0656 F       1  UNL1       -0.2018
      5 C          64.0835   85.8009   14.4735 C.ar    1  UNL1        0.1652
      6 F          64.7942   85.0983   15.5921 F       1  UNL1       -0.2021
      7 C          63.1055   85.0513   13.6182 C.ar    1  UNL1        0.0288
      8 C          62.3948   85.7539   12.4996 C.ar    1  UNL1        0.0146
      9 C          62.8382   83.5989   13.8814 C.3     1  UNL1        0.1081
     10 C          62.4303   84.1824   15.2016 C.3     1  UNL1        0.0291
     11 N          62.4292   82.3492   14.6031 N.2     1  UNL1       -0.2509
     12 C          62.5211   81.0205   13.9132 C.2     1  UNL1        0.1482
     13 N          62.1121   79.7708   14.6350 N.pl3   1  UNL1       -0.3380
     14 S          63.0219   80.9414   12.5015 S.3     1  UNL1       -0.0800
     15 C          63.4309   82.1912   11.7797 C.3     1  UNL1        0.0752
     16 C          63.8398   83.4409   11.0579 C.3     1  UNL1        0.0160
     17 C          63.3390   83.5199   12.4696 C.3     1  UNL1        0.0375
     18 H          61.7834   79.8226   15.5615 H       1  UNL1        0.1442
     19 H          62.1724   78.8987   14.1821 H       1  UNL1        0.1442
     20 C          63.7730   81.3784   10.5663 C.3     1  UNL1        0.1525
     21 O          62.7351   80.4975    9.9365 O.3     1  UNL1       -0.3502
     22 C          63.0603   79.0696    9.6116 C.3     1  UNL1        0.1741
     23 C          61.2791   87.1126   10.0390 C.2     1  UNL1        0.2688
     24 O          61.3175   85.6137   10.0788 O.2     1  UNL1       -0.2681
     25 N          61.9515   87.9090   11.1179 N.am    1  UNL1       -0.2790
     26 H          61.9263   88.8928   11.0918 H       1  UNL1        0.1552
     27 C          59.1471   89.2207    6.6833 C.ar    1  UNL1        0.2457
     28 C          59.8985   90.0146    7.7105 C.ar    1  UNL1        0.1566
     29 N          60.6092   89.3119    8.8290 N.ar    1  UNL1       -0.2328
     30 C          60.5684   87.8153    8.9205 C.ar    1  UNL1        0.1541
     31 C          59.8170   87.0213    7.8933 C.ar    1  UNL1        0.1258
     32 N          59.1063   87.7240    6.7748 N.ar    1  UNL1       -0.2070
     33 O          58.4364   89.9234    5.5648 O.3     1  UNL1       -0.4444
     34 C          58.4570   91.4212    5.4870 C.3     1  UNL1        0.2838
     35 C          60.0205   92.7895    3.3228 C.1     1  UNL1       -0.0105
     36 C          59.2388   92.1053    4.4049 C.1     1  UNL1       -0.0306
@<TRIPOS>BOND
     1    35    36    3
     2    36    34    1
     3    34    33    1
     4    33    27    1
     5    27    28   ar
     6    28    29   ar
     7    29    30   ar
     8    30    23    1
     9    23    24    2
    10    23    25   am
    11    25     1    1
    12     1     2   ar
    13     2     3   ar
    14     3     4    1
    15     3     5   ar
    16     5     6    1
    17     5     7   ar
    18     7     9    1
    19     9    10    1
    20     9    11    1
    21    11    12    2
    22    12    13    1
    23    12    14    1
    24    14    15    1
    25    15    20    1
    26    20    21    1
    27    21    22    1
    28    15    16    1
    29    17    16    1
    30     7     8   ar
    31    30    31   ar
    32    31    32   ar
    33    32    27   ar
    34     8     1   ar
    35    17     9    1
    36    17    15    1
    37    25    26    1
    38    13    18    1
    39    13    19    1
@<TRIPOS>MOLECULE
*****
 36 39 0 0 0
SMALL
GASTEIGER

@<TRIPOS>ATOM
      1 C          61.2310   87.5353   11.2557 C.ar    1  UNL1        0.0527
      2 C          59.8575   88.0865   11.4999 C.ar    1  UNL1        0.0466
      3 C          59.6564   89.5668   11.6346 C.ar    1  UNL1        0.1684
      4 F          58.2829   90.1180   11.8788 F       1  UNL1       -0.2018
      5 C          60.8289   90.4961   11.5250 C.ar    1  UNL1        0.1652
      6 F          60.6277   91.9764   11.6596 F       1  UNL1       -0.2021
      7 C          62.2024   89.9449   11.2807 C.ar    1  UNL1        0.0288
      8 C          62.4035   88.4646   11.1461 C.ar    1  UNL1        0.0146
      9 C          63.3749   90.8741   11.1711 C.3     1  UNL1        0.1081
     10 C          62.9000   90.8849    9.7483 C.3     1  UNL1        0.0291
     11 N          64.3824   91.8070   10.5674 N.2     1  UNL1       -0.2509
     12 C          65.4575   92.4065   11.4245 C.2     1  UNL1        0.1482
     13 N          66.4650   93.3394   10.8208 N.pl3   1  UNL1       -0.3380
     14 S          65.5252   92.0730   12.8854 S.3     1  UNL1       -0.0800
     15 C          64.5176   91.1400   13.4892 C.3     1  UNL1        0.0752
     16 C          63.5101   90.2070   14.0929 C.3     1  UNL1        0.0160
     17 C          63.4425   90.5405   12.6321 C.3     1  UNL1        0.0375
     18 H          66.4206   93.5583    9.8620 H       1  UNL1        0.1442
     19 H          67.1707   93.7328   11.3834 H       1  UNL1        0.1442
     20 C          65.1774   91.2935   14.8275 C.3     1  UNL1        0.1525
     21 O          66.5411   91.9107   14.9250 O.3     1  UNL1       -0.3502
     22 C          66.9407   92.6544   16.1649 C.3     1  UNL1        0.1741
     23 C          62.3962   85.3439   12.0238 C.2     1  UNL1        0.2688
     24 O          63.1591   86.1132   13.0611 O.2     1  UNL1       -0.2681
     25 N          61.4321   86.0550   11.1210 N.am    1  UNL1       -0.2790
     26 H          60.9313   85.5502   10.4402 H       1  UNL1        0.1552
     27 C          62.9994   80.9028   11.6199 C.ar    1  UNL1        0.2457
     28 C          62.3204   81.4600   12.8358 C.ar    1  UNL1        0.1566
     29 N          62.1193   82.9403   12.9704 N.ar    1  UNL1       -0.2328
     30 C          62.5973   83.8636   11.8892 C.ar    1  UNL1        0.1541
     31 C          63.2764   83.3064   10.6733 C.ar    1  UNL1        0.1258
     32 N          63.4775   81.8261   10.5386 N.ar    1  UNL1       -0.2070
     33 O          63.2005   79.4225   11.4853 O.3     1  UNL1       -0.4444
     34 C          62.8188   78.7265   10.2126 C.3     1  UNL1        0.2838
     35 C          64.4838   76.4497    9.1906 C.1     1  UNL1       -0.0105
     36 C          63.6513   77.5881    9.7016 C.1     1  UNL1       -0.0306
@<TRIPOS>BOND
     1    35    36    3
     2    36    34    1
     3    34    33    1
     4    33    27    1
     5    27    28   ar
     6    28    29   ar
     7    29    30   ar
     8    30    23    1
     9    23    24    2
    10    23    25   am
    11    25     1    1
    12     1     2   ar
    13     2     3   ar
    14     3     4    1
    15     3     5   ar
    16     5     6    1
    17     5     7   ar
    18     7     9    1
    19     9    10    1
    20     9    11    1
    21    11    12    2
    22    12    13    1
    23    12    14    1
    24    14    15    1
    25    15    20    1
    26    20    21    1
    27    21    22    1
    28    15    16    1
    29    17    16    1
    30     7     8   ar
    31    30    31   ar
    32    31    32   ar
    33    32    27   ar
    34     8     1   ar
    35    17     9    1
    36    17    15    1
    37    25    26    1
    38    13    18    1
    39    13    19    1
