@<TRIPOS>MOLECULE
*****
 45 48 0 0 0
SMALL
GASTEIGER

@<TRIPOS>ATOM
      1 C          58.5330   90.5111    5.8256 C.2     1  UNL1        0.2253
      2 O          57.0365   90.5524    5.9186 O.2     1  UNL1       -0.2749
      3 N          59.2366   91.2477    4.7246 N.am    1  UNL1       -0.2787
      4 C          58.5807   92.0633    3.6500 C.3     1  UNL1        0.1028
      5 C          59.6584   92.6178    2.7660 C.3     1  UNL1        0.1021
      6 C          60.9803   92.1448    3.2943 C.3     1  UNL1        0.0521
      7 C          60.7196   91.2981    4.5047 C.3     1  UNL1        0.0982
      8 C          61.7400   85.9015    9.7901 C.3     1  UNL1        0.0948
      9 C          61.7049   87.3996    9.8577 C.2     1  UNL1        0.2261
     10 O          62.4627   88.1197   10.9333 O.2     1  UNL1       -0.2749
     11 N          60.9119   88.1774    8.8497 N.am    1  UNL1       -0.2795
     12 C          60.1541   87.4573    7.7741 C.3     1  UNL1        0.0939
     13 C          59.3611   88.2352    6.7660 C.3     1  UNL1        0.0306
     14 C          59.3260   89.7332    6.8336 C.3     1  UNL1        0.0801
     15 C          60.0838   90.4534    7.9093 C.3     1  UNL1        0.0306
     16 C          60.8768   89.6755    8.9173 C.3     1  UNL1        0.0939
     17 C          62.3264   92.4628    2.7141 C.ar    1  UNL1       -0.0241
     18 C          62.5963   93.8254    2.1481 C.ar    1  UNL1       -0.0022
     19 C          63.9425   94.1435    1.5679 C.ar    1  UNL1        0.0293
     20 C          65.0188   93.0987    1.5536 C.ar    1  UNL1        0.1398
     21 F          66.3650   93.4167    0.9733 F       1  UNL1       -0.2042
     22 C          64.7489   91.7361    2.1195 C.ar    1  UNL1        0.0251
     23 C          63.4027   91.4181    2.6998 C.ar    1  UNL1       -0.0235
     24 C          63.1329   90.0555    3.2657 C.3     1  UNL1        0.0308
     25 C          59.4507   93.4917    1.5647 C.2     1  UNL1        0.2274
     26 O          59.1917   94.9586    1.7402 O.2     1  UNL1       -0.2748
     27 N          59.5020   92.8986    0.1879 N.am    1  UNL1       -0.2774
     28 C          59.7610   91.4316    0.0124 C.3     1  UNL1        0.1150
     29 C          59.2942   93.7725   -1.0133 C.3     1  UNL1        0.0794
     30 C          57.8273   93.4605   -0.9867 C.3     1  UNL1        0.0244
     31 C          60.7611   94.0846   -1.0400 C.3     1  UNL1        0.0244
     32 C          59.0865   94.6465   -2.2146 C.ar    1  UNL1       -0.0062
     33 C          57.7034   95.0903   -2.5891 C.ar    1  UNL1        0.0011
     34 C          57.4956   95.9642   -3.7904 C.ar    1  UNL1        0.0711
     35 C          58.6709   96.3943   -4.6172 C.ar    1  UNL1        0.0077
     36 C          60.0540   95.9505   -4.2427 C.ar    1  UNL1        0.0711
     37 C          60.2618   95.0766   -3.0415 C.ar    1  UNL1        0.0011
     38 C          56.1126   96.4080   -4.1648 C.3     1  UNL1        0.4186
     39 F          54.7296   96.8518   -4.5391 F       1  UNL1       -0.1659
     40 F          55.6932   96.3134   -2.7276 F       1  UNL1       -0.1659
     41 F          56.5320   96.5027   -5.6018 F       1  UNL1       -0.1659
     42 C          61.2293   96.3806   -5.0696 C.3     1  UNL1        0.4186
     43 F          62.4046   96.8107   -5.8964 F       1  UNL1       -0.1659
     44 F          60.2988   96.8478   -6.1493 F       1  UNL1       -0.1659
     45 F          62.1599   95.9134   -3.9900 F       1  UNL1       -0.1659
@<TRIPOS>BOND
     1     8     9    1
     2     9    10    2
     3     9    11   am
     4    11    12    1
     5    12    13    1
     6    13    14    1
     7    14     1    1
     8     1     2    2
     9     1     3   am
    10     3     4    1
    11     4     5    1
    12     5    25    1
    13    25    26    2
    14    25    27   am
    15    27    28    1
    16    27    29    1
    17    29    30    1
    18    29    31    1
    19    29    32    1
    20    32    33   ar
    21    33    34   ar
    22    34    38    1
    23    38    39    1
    24    38    40    1
    25    38    41    1
    26    34    35   ar
    27    35    36   ar
    28    36    42    1
    29    42    43    1
    30    42    44    1
    31    42    45    1
    32    36    37   ar
    33     5     6    1
    34     6    17    1
    35    17    18   ar
    36    18    19   ar
    37    19    20   ar
    38    20    21    1
    39    20    22   ar
    40    22    23   ar
    41    23    24    1
    42     6     7    1
    43    14    15    1
    44    15    16    1
    45    16    11    1
    46     7     3    1
    47    37    32   ar
    48    23    17   ar
@<TRIPOS>MOLECULE
*****
 45 48 0 0 0
SMALL
GASTEIGER

@<TRIPOS>ATOM
      1 C          65.1722   90.2238   13.7953 C.2     1  UNL1        0.2253
      2 O          65.8607   89.7767   15.0506 O.2     1  UNL1       -0.2749
      3 N          64.2743   89.2777   13.0547 N.am    1  UNL1       -0.2787
      4 C          63.9702   87.8620   13.4462 C.3     1  UNL1        0.1028
      5 C          63.0307   87.2905   12.4260 C.3     1  UNL1        0.1021
      6 C          62.7541   88.3530   11.4039 C.3     1  UNL1        0.0521
      7 C          63.5227   89.5812   11.7924 C.3     1  UNL1        0.0982
      8 C          65.6656   96.1309   10.3149 C.3     1  UNL1        0.0948
      9 C          66.0101   95.7968   11.7360 C.2     1  UNL1        0.2261
     10 O          66.5641   96.8558   12.6423 O.2     1  UNL1       -0.2749
     11 N          65.8007   94.4035   12.2508 N.am    1  UNL1       -0.2795
     12 C          65.2467   93.3445   11.3445 C.3     1  UNL1        0.0939
     13 C          65.0372   91.9512   11.8593 C.3     1  UNL1        0.0306
     14 C          65.3817   91.6171   13.2804 C.3     1  UNL1        0.0801
     15 C          65.9357   92.6761   14.1867 C.3     1  UNL1        0.0306
     16 C          66.1451   94.0694   13.6719 C.3     1  UNL1        0.0939
     17 C          61.8651   88.2122   10.2041 C.ar    1  UNL1       -0.0241
     18 C          62.0167   87.0302    9.2930 C.ar    1  UNL1       -0.0022
     19 C          61.1277   86.8892    8.0931 C.ar    1  UNL1        0.0293
     20 C          60.0871   87.9304    7.8042 C.ar    1  UNL1        0.1398
     21 F          59.1980   87.7895    6.6043 F       1  UNL1       -0.2042
     22 C          59.9356   89.1123    8.7153 C.ar    1  UNL1        0.0251
     23 C          60.8246   89.2532    9.9152 C.ar    1  UNL1       -0.0235
     24 C          60.6731   90.4351   10.8262 C.3     1  UNL1        0.0308
     25 C          62.4668   85.9005   12.4275 C.2     1  UNL1        0.2274
     26 O          61.0724   85.6563   11.9316 O.2     1  UNL1       -0.2748
     27 N          63.2973   84.7548   12.9251 N.am    1  UNL1       -0.2774
     28 C          64.6917   84.9990   13.4210 C.3     1  UNL1        0.1150
     29 C          62.7334   83.3649   12.9266 C.3     1  UNL1        0.0794
     30 C          62.3365   83.5275   14.3640 C.3     1  UNL1        0.0244
     31 C          63.1303   83.2022   11.4893 C.3     1  UNL1        0.0244
     32 C          62.1695   81.9749   12.9282 C.ar    1  UNL1       -0.0062
     33 C          62.8037   80.9072   12.0868 C.ar    1  UNL1        0.0011
     34 C          62.2398   79.5173   12.0883 C.ar    1  UNL1        0.0711
     35 C          61.0417   79.1949   12.9313 C.ar    1  UNL1        0.0077
     36 C          60.4075   80.2626   13.7728 C.ar    1  UNL1        0.0711
     37 C          60.9714   81.6525   13.7712 C.ar    1  UNL1        0.0011
     38 C          62.8740   78.4497   11.2469 C.3     1  UNL1        0.4186
     39 F          63.5081   77.3822   10.4054 F       1  UNL1       -0.1659
     40 F          62.7909   79.3461   10.0470 F       1  UNL1       -0.1659
     41 F          62.9570   77.5533   12.4467 F       1  UNL1       -0.1659
     42 C          59.2094   79.9402   14.6158 C.3     1  UNL1        0.4186
     43 F          58.0113   79.6179   15.4588 F       1  UNL1       -0.1659
     44 F          59.6023   78.4926   14.6206 F       1  UNL1       -0.1659
     45 F          58.8165   81.3878   14.6110 F       1  UNL1       -0.1659
@<TRIPOS>BOND
     1     8     9    1
     2     9    10    2
     3     9    11   am
     4    11    12    1
     5    12    13    1
     6    13    14    1
     7    14     1    1
     8     1     2    2
     9     1     3   am
    10     3     4    1
    11     4     5    1
    12     5    25    1
    13    25    26    2
    14    25    27   am
    15    27    28    1
    16    27    29    1
    17    29    30    1
    18    29    31    1
    19    29    32    1
    20    32    33   ar
    21    33    34   ar
    22    34    38    1
    23    38    39    1
    24    38    40    1
    25    38    41    1
    26    34    35   ar
    27    35    36   ar
    28    36    42    1
    29    42    43    1
    30    42    44    1
    31    42    45    1
    32    36    37   ar
    33     5     6    1
    34     6    17    1
    35    17    18   ar
    36    18    19   ar
    37    19    20   ar
    38    20    21    1
    39    20    22   ar
    40    22    23   ar
    41    23    24    1
    42     6     7    1
    43    14    15    1
    44    15    16    1
    45    16    11    1
    46     7     3    1
    47    37    32   ar
    48    23    17   ar
@<TRIPOS>MOLECULE
*****
 45 48 0 0 0
SMALL
GASTEIGER

@<TRIPOS>ATOM
      1 C          65.1713   90.2247   13.7989 C.2     1  UNL1        0.2253
      2 O          65.8567   89.7781   15.0561 O.2     1  UNL1       -0.2749
      3 N          64.2743   89.2785   13.0572 N.am    1  UNL1       -0.2787
      4 C          63.9684   87.8634   13.4493 C.3     1  UNL1        0.1028
      5 C          63.0306   87.2916   12.4275 C.3     1  UNL1        0.1021
      6 C          62.7570   88.3535   11.4039 C.3     1  UNL1        0.0521
      7 C          63.5256   89.5815   11.7931 C.3     1  UNL1        0.0982
      8 C          65.6716   96.1297   10.3160 C.3     1  UNL1        0.0948
      9 C          66.0175   95.7953   11.7367 C.2     1  UNL1        0.2261
     10 O          66.5749   96.8535   12.6419 O.2     1  UNL1       -0.2749
     11 N          65.8059   94.4026   12.2523 N.am    1  UNL1       -0.2795
     12 C          65.2485   93.3444   11.3471 C.3     1  UNL1        0.0939
     13 C          65.0369   91.9517   11.8626 C.3     1  UNL1        0.0306
     14 C          65.3828   91.6173   13.2834 C.3     1  UNL1        0.0801
     15 C          65.9402   92.6755   14.1885 C.3     1  UNL1        0.0306
     16 C          66.1518   94.0682   13.6730 C.3     1  UNL1        0.0939
     17 C          61.8705   88.2122   10.2023 C.ar    1  UNL1       -0.0241
     18 C          62.0180   87.0255    9.2969 C.ar    1  UNL1       -0.0022
     19 C          61.1314   86.8841    8.0951 C.ar    1  UNL1        0.0293
     20 C          60.0974   87.9297    7.7989 C.ar    1  UNL1        0.1398
     21 F          59.2108   87.7884    6.5972 F       1  UNL1       -0.2042
     22 C          59.9499   89.1164    8.7044 C.ar    1  UNL1        0.0251
     23 C          60.8365   89.2577    9.9061 C.ar    1  UNL1       -0.0235
     24 C          60.6890   90.4444   10.8115 C.3     1  UNL1        0.0308
     25 C          62.4657   85.9021   12.4290 C.2     1  UNL1        0.2274
     26 O          61.0717   85.6587   11.9320 O.2     1  UNL1       -0.2748
     27 N          63.2951   84.7559   12.9276 N.am    1  UNL1       -0.2774
     28 C          64.6892   84.9993   13.4247 C.3     1  UNL1        0.1150
     29 C          62.7302   83.3664   12.9292 C.3     1  UNL1        0.0794
     30 C          63.1045   83.2126   11.4848 C.3     1  UNL1        0.0244
     31 C          62.3558   83.5202   14.3735 C.3     1  UNL1        0.0244
     32 C          62.1653   81.9768   12.9307 C.ar    1  UNL1       -0.0062
     33 C          60.9660   81.6556   13.7726 C.ar    1  UNL1        0.0011
     34 C          60.4011   80.2661   13.7741 C.ar    1  UNL1        0.0711
     35 C          61.0355   79.1976   12.9338 C.ar    1  UNL1        0.0077
     36 C          62.2348   79.5188   12.0919 C.ar    1  UNL1        0.0711
     37 C          62.7997   80.9084   12.0904 C.ar    1  UNL1        0.0011
     38 C          59.2019   79.9449   14.6160 C.3     1  UNL1        0.4186
     39 F          58.0028   79.6237   15.4578 F       1  UNL1       -0.1659
     40 F          59.5838   78.4943   14.6066 F       1  UNL1       -0.1659
     41 F          58.8201   81.3955   14.6254 F       1  UNL1       -0.1659
     42 C          62.8691   78.4504   11.2516 C.3     1  UNL1        0.4186
     43 F          63.5034   77.3821   10.4114 F       1  UNL1       -0.1659
     44 F          62.7901   79.3472   10.0518 F       1  UNL1       -0.1659
     45 F          62.9482   77.5537   12.4514 F       1  UNL1       -0.1659
@<TRIPOS>BOND
     1     8     9    1
     2     9    10    2
     3     9    11   am
     4    11    12    1
     5    12    13    1
     6    13    14    1
     7    14     1    1
     8     1     2    2
     9     1     3   am
    10     3     4    1
    11     4     5    1
    12     5    25    1
    13    25    26    2
    14    25    27   am
    15    27    28    1
    16    27    29    1
    17    29    30    1
    18    29    31    1
    19    29    32    1
    20    32    33   ar
    21    33    34   ar
    22    34    38    1
    23    38    39    1
    24    38    40    1
    25    38    41    1
    26    34    35   ar
    27    35    36   ar
    28    36    42    1
    29    42    43    1
    30    42    44    1
    31    42    45    1
    32    36    37   ar
    33     5     6    1
    34     6    17    1
    35    17    18   ar
    36    18    19   ar
    37    19    20   ar
    38    20    21    1
    39    20    22   ar
    40    22    23   ar
    41    23    24    1
    42     6     7    1
    43    14    15    1
    44    15    16    1
    45    16    11    1
    46     7     3    1
    47    37    32   ar
    48    23    17   ar
