@<TRIPOS>MOLECULE
*****
 29 31 0 0 0
SMALL
GASTEIGER

@<TRIPOS>ATOM
      1 C          61.8166   88.6074   11.1433 C.3     1  UNL1        0.0391
      2 C          61.4198   89.7888   10.3085 C.3     1  UNL1        0.1429
      3 O          62.3132   90.9366   10.6751 O.3     1  UNL1       -0.3518
      4 C          63.2623   90.4646   11.7365 C.3     1  UNL1        0.1399
      5 C          62.9553   89.0251   12.0258 C.3     1  UNL1        0.0635
      6 C          64.3307   91.2875   12.3932 C.ar    1  UNL1        0.0078
      7 C          64.6205   91.1122   13.8545 C.ar    1  UNL1        0.0014
      8 C          65.6889   91.9351   14.5112 C.ar    1  UNL1        0.0395
      9 C          66.4675   92.9333   13.7067 C.ar    1  UNL1        0.1677
     10 O          67.5359   93.7563   14.3633 O.3     1  UNL1       -0.5029
     11 C          66.1777   93.1086   12.2454 C.ar    1  UNL1        0.1719
     12 C          65.1093   92.2857   11.5886 C.ar    1  UNL1        0.0381
     13 H          67.7170   93.6469   15.2761 H       1  UNL1        0.2923
     14 O          66.9564   94.1069   11.4408 O.3     1  UNL1       -0.4684
     15 C          66.3352   95.4216   11.0728 C.3     1  UNL1        0.2526
     16 C          63.6629   88.1558   13.0227 C.3     1  UNL1        0.1399
     17 O          63.5237   88.4315   14.4905 O.3     1  UNL1       -0.3819
     18 H          63.9341   89.2852   14.6996 H       1  UNL1        0.2104
     19 C          61.1855   87.2473   11.1026 C.3     1  UNL1        0.0291
     20 C          63.2180   83.8883   11.6828 C.ar    1  UNL1        0.1718
     21 C          62.3742   85.0989   11.9521 C.ar    1  UNL1        0.0358
     22 C          62.0294   86.0367   10.8333 C.ar    1  UNL1       -0.0189
     23 C          62.5284   85.7640    9.4453 C.ar    1  UNL1       -0.0010
     24 C          63.3722   84.5534    9.1761 C.ar    1  UNL1        0.0395
     25 C          63.7170   83.6156   10.2948 C.ar    1  UNL1        0.1677
     26 O          64.5609   82.4050   10.0255 O.3     1  UNL1       -0.5029
     27 H          64.8726   82.2347    9.1585 H       1  UNL1        0.2923
     28 C          62.5662   81.9253   13.2550 C.3     1  UNL1        0.2526
     29 O          63.5629   82.9505   12.8016 O.3     1  UNL1       -0.4684
@<TRIPOS>BOND
     1    28    29    1
     2    29    20    1
     3    20    21   ar
     4    21    22   ar
     5    22    19    1
     6     1    19    1
     7     1     2    1
     8     2     3    1
     9     3     4    1
    10     4     6    1
    11     6     7   ar
    12     7     8   ar
    13     8     9   ar
    14     9    10    1
    15     9    11   ar
    16    11    14    1
    17    14    15    1
    18    11    12   ar
    19     4     5    1
    20     5    16    1
    21    16    17    1
    22    22    23   ar
    23    23    24   ar
    24    24    25   ar
    25    25    26    1
    26    25    20   ar
    27     5     1    1
    28    12     6   ar
    29    10    13    1
    30    17    18    1
    31    26    27    1
@<TRIPOS>MOLECULE
*****
 29 31 0 0 0
SMALL
GASTEIGER

@<TRIPOS>ATOM
      1 C          63.8310   88.2421   13.5832 C.3     1  UNL1        0.0391
      2 C          63.0581   88.4432   12.3135 C.3     1  UNL1        0.1429
      3 O          62.7083   87.0918   11.7646 O.3     1  UNL1       -0.3518
      4 C          63.2650   86.0553   12.6951 C.3     1  UNL1        0.1399
      5 C          63.9589   86.7662   13.8190 C.3     1  UNL1        0.0635
      6 C          63.1484   84.5689   12.5306 C.ar    1  UNL1        0.0078
      7 C          63.7017   83.9043   11.3050 C.ar    1  UNL1        0.0014
      8 C          63.5851   82.4179   11.1405 C.ar    1  UNL1        0.0395
      9 C          62.9151   81.5962   12.2016 C.ar    1  UNL1        0.1677
     10 O          62.7985   80.1098   12.0372 O.3     1  UNL1       -0.5029
     11 C          62.3619   82.2609   13.4272 C.ar    1  UNL1        0.1719
     12 C          62.4785   83.7472   13.5917 C.ar    1  UNL1        0.0381
     13 H          63.1441   79.6945   11.2717 H       1  UNL1        0.2923
     14 O          61.6919   81.4391   14.4884 O.3     1  UNL1       -0.4684
     15 C          60.4258   80.6982   14.1753 C.3     1  UNL1        0.2526
     16 C          64.6579   86.1156   14.9757 C.3     1  UNL1        0.1399
     17 O          65.8033   85.1789   14.7293 O.3     1  UNL1       -0.3819
     18 H          65.4812   84.3882   14.2689 H       1  UNL1        0.2104
     19 C          64.3797   89.3263   14.4626 C.3     1  UNL1        0.0291
     20 C          66.8328   92.3752   13.8019 C.ar    1  UNL1        0.1718
     21 C          66.2370   91.1424   14.4143 C.ar    1  UNL1        0.0358
     22 C          64.9755   90.5592   13.8501 C.ar    1  UNL1       -0.0189
     23 C          64.3097   91.2088   12.6734 C.ar    1  UNL1       -0.0010
     24 C          64.9055   92.4416   12.0609 C.ar    1  UNL1        0.0395
     25 C          66.1670   93.0248   12.6252 C.ar    1  UNL1        0.1677
     26 O          66.7628   94.2577   12.0127 O.3     1  UNL1       -0.5029
     27 H          66.3469   94.6635   11.2776 H       1  UNL1        0.2923
     28 C          68.5793   92.5292   15.7191 C.3     1  UNL1        0.2526
     29 O          68.0943   92.9584   14.3662 O.3     1  UNL1       -0.4684
@<TRIPOS>BOND
     1    28    29    1
     2    29    20    1
     3    20    21   ar
     4    21    22   ar
     5    22    19    1
     6     1    19    1
     7     1     2    1
     8     2     3    1
     9     3     4    1
    10     4     6    1
    11     6     7   ar
    12     7     8   ar
    13     8     9   ar
    14     9    10    1
    15     9    11   ar
    16    11    14    1
    17    14    15    1
    18    11    12   ar
    19     4     5    1
    20     5    16    1
    21    16    17    1
    22    22    23   ar
    23    23    24   ar
    24    24    25   ar
    25    25    26    1
    26    25    20   ar
    27     5     1    1
    28    12     6   ar
    29    10    13    1
    30    17    18    1
    31    26    27    1
@<TRIPOS>MOLECULE
*****
 29 31 0 0 0
SMALL
GASTEIGER

@<TRIPOS>ATOM
      1 C          63.5076   89.8741   13.0451 C.3     1  UNL1        0.0391
      2 C          63.8827   88.5277   13.5897 C.3     1  UNL1        0.1429
      3 O          63.3095   87.4830   12.6786 O.3     1  UNL1       -0.3518
      4 C          62.5801   88.1837   11.5709 C.3     1  UNL1        0.1399
      5 C          62.7026   89.6615   11.7974 C.3     1  UNL1        0.0635
      6 C          61.8555   87.5228   10.4359 C.ar    1  UNL1        0.0078
      7 C          62.2092   86.1213   10.0350 C.ar    1  UNL1        0.0014
      8 C          61.4845   85.4604    8.9001 C.ar    1  UNL1        0.0395
      9 C          60.4063   86.2010    8.1660 C.ar    1  UNL1        0.1677
     10 O          59.6816   85.5402    7.0311 O.3     1  UNL1       -0.5029
     11 C          60.0526   87.6025    8.5670 C.ar    1  UNL1        0.1719
     12 C          60.7772   88.2634    9.7019 C.ar    1  UNL1        0.0381
     13 H          59.9025   84.6647    6.7806 H       1  UNL1        0.2923
     14 O          58.9743   88.3431    7.8329 O.3     1  UNL1       -0.4684
     15 C          59.3357   89.3045    6.7396 C.3     1  UNL1        0.2526
     16 C          62.1219   90.7377   10.9288 C.3     1  UNL1        0.1399
     17 O          62.9761   91.4093    9.8946 O.3     1  UNL1       -0.3819
     18 H          63.6771   91.9159   10.3337 H       1  UNL1        0.2104
     19 C          63.8734   91.2001   13.6432 C.3     1  UNL1        0.0291
     20 C          67.7000   91.9448   12.8998 C.ar    1  UNL1        0.1718
     21 C          66.2581   91.5896   12.6885 C.ar    1  UNL1        0.0358
     22 C          65.3153   91.5554   13.8546 C.ar    1  UNL1       -0.0189
     23 C          65.8144   91.8766   15.2322 C.ar    1  UNL1       -0.0010
     24 C          67.2563   92.2318   15.4436 C.ar    1  UNL1        0.0395
     25 C          68.1991   92.2660   14.2774 C.ar    1  UNL1        0.1677
     26 O          69.6410   92.6213   14.4888 O.3     1  UNL1       -0.5029
     27 H          69.9528   92.8219   15.3494 H       1  UNL1        0.2923
     28 C          68.1106   92.1700   10.3443 C.3     1  UNL1        0.2526
     29 O          68.6428   91.9790   11.7336 O.3     1  UNL1       -0.4684
@<TRIPOS>BOND
     1    28    29    1
     2    29    20    1
     3    20    21   ar
     4    21    22   ar
     5    22    19    1
     6     1    19    1
     7     1     2    1
     8     2     3    1
     9     3     4    1
    10     4     6    1
    11     6     7   ar
    12     7     8   ar
    13     8     9   ar
    14     9    10    1
    15     9    11   ar
    16    11    14    1
    17    14    15    1
    18    11    12   ar
    19     4     5    1
    20     5    16    1
    21    16    17    1
    22    22    23   ar
    23    23    24   ar
    24    24    25   ar
    25    25    26    1
    26    25    20   ar
    27     5     1    1
    28    12     6   ar
    29    10    13    1
    30    17    18    1
    31    26    27    1
@<TRIPOS>MOLECULE
*****
 29 31 0 0 0
SMALL
GASTEIGER

@<TRIPOS>ATOM
      1 C          61.5397   88.0793   10.9018 C.3     1  UNL1        0.0391
      2 C          60.9394   89.0444    9.9229 C.3     1  UNL1        0.1429
      3 O          61.7122   90.3274   10.0035 O.3     1  UNL1       -0.3518
      4 C          62.7902   90.1553   11.0323 C.3     1  UNL1        0.1399
      5 C          62.6836   88.7658   11.5874 C.3     1  UNL1        0.0635
      6 C          63.7979   91.1907   11.4352 C.ar    1  UNL1        0.0078
      7 C          64.4330   92.0643   10.3942 C.ar    1  UNL1        0.0014
      8 C          65.4407   93.0997   10.7971 C.ar    1  UNL1        0.0395
      9 C          65.8134   93.2616   12.2410 C.ar    1  UNL1        0.1677
     10 O          66.8211   94.2970   12.6440 O.3     1  UNL1       -0.5029
     11 C          65.1783   92.3881   13.2820 C.ar    1  UNL1        0.1719
     12 C          64.1706   91.3526   12.8791 C.ar    1  UNL1        0.0381
     13 H          67.2178   94.8427   11.9938 H       1  UNL1        0.2923
     14 O          65.5511   92.5500   14.7259 O.3     1  UNL1       -0.4684
     15 C          66.8859   92.0707   15.2141 C.3     1  UNL1        0.2526
     16 C          63.5659   88.1680   12.6429 C.3     1  UNL1        0.1399
     17 O          63.4234   88.5993   14.0724 O.3     1  UNL1       -0.3819
     18 H          63.6791   89.5313   14.1560 H       1  UNL1        0.2104
     19 C          61.0773   86.6743   11.1512 C.3     1  UNL1        0.0291
     20 C          63.4048   83.7677   12.5240 C.ar    1  UNL1        0.1718
     21 C          62.4099   84.8896   12.4889 C.ar    1  UNL1        0.0358
     22 C          62.0723   85.5523   11.1862 C.ar    1  UNL1       -0.0189
     23 C          62.7297   85.0930    9.9186 C.ar    1  UNL1       -0.0010
     24 C          63.7247   83.9711    9.9537 C.ar    1  UNL1        0.0395
     25 C          64.0622   83.3084   11.2564 C.ar    1  UNL1        0.1677
     26 O          65.0573   82.1865   11.2914 O.3     1  UNL1       -0.5029
     27 H          65.4679   81.8996   10.4996 H       1  UNL1        0.2923
     28 C          62.8705   83.3237   15.0274 C.3     1  UNL1        0.2526
     29 O          63.7424   83.1051   13.8266 O.3     1  UNL1       -0.4684
@<TRIPOS>BOND
     1    28    29    1
     2    29    20    1
     3    20    21   ar
     4    21    22   ar
     5    22    19    1
     6     1    19    1
     7     1     2    1
     8     2     3    1
     9     3     4    1
    10     4     6    1
    11     6     7   ar
    12     7     8   ar
    13     8     9   ar
    14     9    10    1
    15     9    11   ar
    16    11    14    1
    17    14    15    1
    18    11    12   ar
    19     4     5    1
    20     5    16    1
    21    16    17    1
    22    22    23   ar
    23    23    24   ar
    24    24    25   ar
    25    25    26    1
    26    25    20   ar
    27     5     1    1
    28    12     6   ar
    29    10    13    1
    30    17    18    1
    31    26    27    1
@<TRIPOS>MOLECULE
*****
 29 31 0 0 0
SMALL
GASTEIGER

@<TRIPOS>ATOM
      1 C          63.3093   88.7025   13.0109 C.3     1  UNL1        0.0391
      2 C          64.1725   88.3416   14.1833 C.3     1  UNL1        0.1429
      3 O          64.2876   86.8468   14.2314 O.3     1  UNL1       -0.3518
      4 C          63.4955   86.2839   13.0888 C.3     1  UNL1        0.1399
      5 C          62.8909   87.4308   12.3345 C.3     1  UNL1        0.0635
      6 C          63.3361   84.8294   12.7584 C.ar    1  UNL1        0.0078
      7 C          63.7429   84.3180   11.4082 C.ar    1  UNL1        0.0014
      8 C          63.5835   82.8636   11.0778 C.ar    1  UNL1        0.0395
      9 C          63.0172   81.9205   12.0976 C.ar    1  UNL1        0.1677
     10 O          62.8577   80.4660   11.7673 O.3     1  UNL1       -0.5029
     11 C          62.6104   82.4319   13.4478 C.ar    1  UNL1        0.1719
     12 C          62.7698   83.8864   13.7781 C.ar    1  UNL1        0.0381
     13 H          63.1118   80.1465   10.9239 H       1  UNL1        0.2923
     14 O          62.0440   81.4888   14.4676 O.3     1  UNL1       -0.4684
     15 C          60.7381   80.7985   14.2070 C.3     1  UNL1        0.2526
     16 C          62.0206   87.3246   11.1173 C.3     1  UNL1        0.1399
     17 O          60.5465   87.0909   11.2672 O.3     1  UNL1       -0.3819
     18 H          60.3957   86.2132   11.6516 H       1  UNL1        0.2104
     19 C          62.9308   90.0914   12.5891 C.3     1  UNL1        0.0291
     20 C          66.0248   92.5373   13.0309 C.ar    1  UNL1        0.1718
     21 C          64.9570   91.5316   13.3445 C.ar    1  UNL1        0.0358
     22 C          63.9987   91.0971   12.2754 C.ar    1  UNL1       -0.0189
     23 C          64.1082   91.6683   10.8928 C.ar    1  UNL1       -0.0010
     24 C          65.1760   92.6739   10.5792 C.ar    1  UNL1        0.0395
     25 C          66.1343   93.1084   11.6483 C.ar    1  UNL1        0.1677
     26 O          67.2021   94.1142   11.3347 O.3     1  UNL1       -0.5029
     27 H          67.2706   94.4709   10.4710 H       1  UNL1        0.2923
     28 C          67.6822   91.9463   14.9424 C.3     1  UNL1        0.2526
     29 O          66.9831   92.9718   14.1000 O.3     1  UNL1       -0.4684
@<TRIPOS>BOND
     1    28    29    1
     2    29    20    1
     3    20    21   ar
     4    21    22   ar
     5    22    19    1
     6     1    19    1
     7     1     2    1
     8     2     3    1
     9     3     4    1
    10     4     6    1
    11     6     7   ar
    12     7     8   ar
    13     8     9   ar
    14     9    10    1
    15     9    11   ar
    16    11    14    1
    17    14    15    1
    18    11    12   ar
    19     4     5    1
    20     5    16    1
    21    16    17    1
    22    22    23   ar
    23    23    24   ar
    24    24    25   ar
    25    25    26    1
    26    25    20   ar
    27     5     1    1
    28    12     6   ar
    29    10    13    1
    30    17    18    1
    31    26    27    1
@<TRIPOS>MOLECULE
*****
 29 31 0 0 0
SMALL
GASTEIGER

@<TRIPOS>ATOM
      1 C          63.6067   88.1183   13.3341 C.3     1  UNL1        0.0391
      2 C          64.3969   87.6733   14.5289 C.3     1  UNL1        0.1429
      3 O          64.4270   86.1736   14.5324 O.3     1  UNL1       -0.3518
      4 C          63.6554   85.6917   13.3397 C.3     1  UNL1        0.1399
      5 C          63.1485   86.8936   12.5992 C.3     1  UNL1        0.0635
      6 C          63.4302   84.2594   12.9552 C.ar    1  UNL1        0.0078
      7 C          63.9443   83.7454   11.6431 C.ar    1  UNL1        0.0014
      8 C          63.7191   82.3132   11.2585 C.ar    1  UNL1        0.0395
      9 C          62.9798   81.3949   12.1860 C.ar    1  UNL1        0.1677
     10 O          62.7546   79.9626   11.8015 O.3     1  UNL1       -0.5029
     11 C          62.4658   81.9089   13.4981 C.ar    1  UNL1        0.1719
     12 C          62.6909   83.3412   13.8827 C.ar    1  UNL1        0.0381
     13 H          63.0757   79.6415   10.9819 H       1  UNL1        0.2923
     14 O          61.7265   80.9906   14.4256 O.3     1  UNL1       -0.4684
     15 C          60.2935   80.6424   14.1514 C.3     1  UNL1        0.2526
     16 C          62.3274   86.8742   11.3440 C.3     1  UNL1        0.1399
     17 O          60.8645   86.5493   11.4095 O.3     1  UNL1       -0.3819
     18 H          60.7501   85.6286   11.6924 H       1  UNL1        0.2104
     19 C          63.3245   89.5386   12.9429 C.3     1  UNL1        0.0291
     20 C          65.6167   92.7574   12.5750 C.ar    1  UNL1        0.1718
     21 C          64.6248   91.6794   12.2527 C.ar    1  UNL1        0.0358
     22 C          64.3164   90.6167   13.2653 C.ar    1  UNL1       -0.0189
     23 C          65.0000   90.6319   14.6004 C.ar    1  UNL1       -0.0010
     24 C          65.9919   91.7099   14.9228 C.ar    1  UNL1        0.0395
     25 C          66.3002   92.7727   13.9101 C.ar    1  UNL1        0.1677
     26 O          67.2922   93.8507   14.2325 O.3     1  UNL1       -0.5029
     27 H          67.7192   93.8602   15.0665 H       1  UNL1        0.2923
     28 C          66.6937   93.4736   10.3218 C.3     1  UNL1        0.2526
     29 O          65.9250   93.8201   11.5623 O.3     1  UNL1       -0.4684
@<TRIPOS>BOND
     1    28    29    1
     2    29    20    1
     3    20    21   ar
     4    21    22   ar
     5    22    19    1
     6     1    19    1
     7     1     2    1
     8     2     3    1
     9     3     4    1
    10     4     6    1
    11     6     7   ar
    12     7     8   ar
    13     8     9   ar
    14     9    10    1
    15     9    11   ar
    16    11    14    1
    17    14    15    1
    18    11    12   ar
    19     4     5    1
    20     5    16    1
    21    16    17    1
    22    22    23   ar
    23    23    24   ar
    24    24    25   ar
    25    25    26    1
    26    25    20   ar
    27     5     1    1
    28    12     6   ar
    29    10    13    1
    30    17    18    1
    31    26    27    1
@<TRIPOS>MOLECULE
*****
 29 31 0 0 0
SMALL
GASTEIGER

@<TRIPOS>ATOM
      1 C          63.5848   89.0995   13.1276 C.3     1  UNL1        0.0391
      2 C          64.3811   89.0971   14.3987 C.3     1  UNL1        0.1429
      3 O          64.5424   87.6732   14.8420 O.3     1  UNL1       -0.3518
      4 C          63.8458   86.7955   13.8448 C.3     1  UNL1        0.1399
      5 C          63.2540   87.6770   12.7852 C.3     1  UNL1        0.0635
      6 C          63.7566   85.2991   13.8978 C.ar    1  UNL1        0.0078
      7 C          63.1739   84.6247   15.1043 C.ar    1  UNL1        0.0014
      8 C          63.0848   83.1283   15.1574 C.ar    1  UNL1        0.0395
      9 C          63.5783   82.3063   14.0038 C.ar    1  UNL1        0.1677
     10 O          63.4892   80.8099   14.0567 O.3     1  UNL1       -0.5029
     11 C          64.1610   82.9807   12.7973 C.ar    1  UNL1        0.1719
     12 C          64.2502   84.4771   12.7443 C.ar    1  UNL1        0.0381
     13 H          63.1252   80.3886   14.8104 H       1  UNL1        0.2923
     14 O          64.6546   82.1586   11.6437 O.3     1  UNL1       -0.4684
     15 C          64.2189   82.4887   10.2469 C.3     1  UNL1        0.2526
     16 C          62.4691   87.2169   11.5926 C.3     1  UNL1        0.1399
     17 O          61.0499   86.7606   11.7592 O.3     1  UNL1       -0.3819
     18 H          61.0315   85.9482   12.2888 H       1  UNL1        0.2104
     19 C          63.1889   90.3115   12.3375 C.3     1  UNL1        0.0291
     20 C          66.1999   92.8657   12.7374 C.ar    1  UNL1        0.1718
     21 C          65.1789   91.8162   13.0628 C.ar    1  UNL1        0.0358
     22 C          64.2099   91.3611   12.0120 C.ar    1  UNL1       -0.0189
     23 C          64.2620   91.9556   10.6359 C.ar    1  UNL1       -0.0010
     24 C          65.2831   93.0051   10.3105 C.ar    1  UNL1        0.0395
     25 C          66.2520   93.4602   11.3612 C.ar    1  UNL1        0.1677
     26 O          67.2731   94.5098   11.0358 O.3     1  UNL1       -0.5029
     27 H          67.3056   94.8811   10.1761 H       1  UNL1        0.2923
     28 C          67.6235   92.3668   14.8526 C.3     1  UNL1        0.2526
     29 O          67.1688   93.3207   13.7881 O.3     1  UNL1       -0.4684
@<TRIPOS>BOND
     1    28    29    1
     2    29    20    1
     3    20    21   ar
     4    21    22   ar
     5    22    19    1
     6     1    19    1
     7     1     2    1
     8     2     3    1
     9     3     4    1
    10     4     6    1
    11     6     7   ar
    12     7     8   ar
    13     8     9   ar
    14     9    10    1
    15     9    11   ar
    16    11    14    1
    17    14    15    1
    18    11    12   ar
    19     4     5    1
    20     5    16    1
    21    16    17    1
    22    22    23   ar
    23    23    24   ar
    24    24    25   ar
    25    25    26    1
    26    25    20   ar
    27     5     1    1
    28    12     6   ar
    29    10    13    1
    30    17    18    1
    31    26    27    1
@<TRIPOS>MOLECULE
*****
 29 31 0 0 0
SMALL
GASTEIGER

@<TRIPOS>ATOM
      1 C          63.9011   87.2787   13.5889 C.3     1  UNL1        0.0391
      2 C          64.6720   86.7397   14.7574 C.3     1  UNL1        0.1429
      3 O          64.5955   85.2423   14.7122 O.3     1  UNL1       -0.3518
      4 C          63.7774   84.8559   13.5158 C.3     1  UNL1        0.1399
      5 C          63.3482   86.1144   12.8216 C.3     1  UNL1        0.0635
      6 C          63.4465   83.4566   13.0887 C.ar    1  UNL1        0.0078
      7 C          64.0303   82.9007   11.8236 C.ar    1  UNL1        0.0014
      8 C          63.6994   81.5014   11.3965 C.ar    1  UNL1        0.0395
      9 C          62.7848   80.6580   12.2343 C.ar    1  UNL1        0.1677
     10 O          62.4538   79.2587   11.8072 O.3     1  UNL1       -0.5029
     11 C          62.2010   81.2139   13.4993 C.ar    1  UNL1        0.1719
     12 C          62.5319   82.6131   13.9265 C.ar    1  UNL1        0.0381
     13 H          62.8184   78.9114   11.0170 H       1  UNL1        0.2923
     14 O          61.2863   80.3703   14.3372 O.3     1  UNL1       -0.4684
     15 C          59.8032   80.4299   14.1206 C.3     1  UNL1        0.2526
     16 C          62.5128   86.1945   11.5784 C.3     1  UNL1        0.1399
     17 O          61.0294   86.3911   11.6827 O.3     1  UNL1       -0.3819
     18 H          60.6284   85.6114   12.0977 H       1  UNL1        0.2104
     19 C          63.7157   88.7276   13.2477 C.3     1  UNL1        0.0291
     20 C          65.3848   91.8487   15.0428 C.ar    1  UNL1        0.1718
     21 C          65.0899   90.7933   14.0185 C.ar    1  UNL1        0.0358
     22 C          64.0105   89.7830   14.2720 C.ar    1  UNL1       -0.0189
     23 C          63.2261   89.8281   15.5497 C.ar    1  UNL1       -0.0010
     24 C          63.5210   90.8835   16.5739 C.ar    1  UNL1        0.0395
     25 C          64.6004   91.8938   16.3205 C.ar    1  UNL1        0.1677
     26 O          64.8953   92.9493   17.3448 O.3     1  UNL1       -0.5029
     27 H          64.4052   92.9775   18.1429 H       1  UNL1        0.2923
     28 C          67.8408   92.4051   14.4036 C.3     1  UNL1        0.2526
     29 O          66.4642   92.8591   14.7893 O.3     1  UNL1       -0.4684
@<TRIPOS>BOND
     1    28    29    1
     2    29    20    1
     3    20    21   ar
     4    21    22   ar
     5    22    19    1
     6     1    19    1
     7     1     2    1
     8     2     3    1
     9     3     4    1
    10     4     6    1
    11     6     7   ar
    12     7     8   ar
    13     8     9   ar
    14     9    10    1
    15     9    11   ar
    16    11    14    1
    17    14    15    1
    18    11    12   ar
    19     4     5    1
    20     5    16    1
    21    16    17    1
    22    22    23   ar
    23    23    24   ar
    24    24    25   ar
    25    25    26    1
    26    25    20   ar
    27     5     1    1
    28    12     6   ar
    29    10    13    1
    30    17    18    1
    31    26    27    1
@<TRIPOS>MOLECULE
*****
 29 31 0 0 0
SMALL
GASTEIGER

@<TRIPOS>ATOM
      1 C          62.9143   89.0654   12.4060 C.3     1  UNL1        0.0391
      2 C          62.0685   88.9973   11.1691 C.3     1  UNL1        0.1429
      3 O          61.9379   87.5557   10.7756 O.3     1  UNL1       -0.3518
      4 C          62.7030   86.7329   11.7693 C.3     1  UNL1        0.1399
      5 C          63.3065   87.6659   12.7769 C.3     1  UNL1        0.0635
      6 C          62.8406   85.2393   11.7575 C.ar    1  UNL1        0.0078
      7 C          63.2983   84.5380   10.5130 C.ar    1  UNL1        0.0014
      8 C          63.4358   83.0444   10.5011 C.ar    1  UNL1        0.0395
      9 C          63.1158   82.2520   11.7339 C.ar    1  UNL1        0.1677
     10 O          63.2533   80.7584   11.7222 O.3     1  UNL1       -0.5029
     11 C          62.6581   82.9532   12.9784 C.ar    1  UNL1        0.1719
     12 C          62.5205   84.4469   12.9902 C.ar    1  UNL1        0.0381
     13 H          63.5392   80.3203   10.9448 H       1  UNL1        0.2923
     14 O          62.3380   82.1608   14.2112 O.3     1  UNL1       -0.4684
     15 C          61.2150   81.1665   14.1930 C.3     1  UNL1        0.2526
     16 C          64.1534   87.2691   13.9496 C.3     1  UNL1        0.1399
     17 O          63.7159   87.6149   15.3421 O.3     1  UNL1       -0.3819
     18 H          63.7251   88.5784   15.4540 H       1  UNL1        0.2104
     19 C          63.3002   90.3138   13.1426 C.3     1  UNL1        0.0291
     20 C          66.5491   92.5709   12.8263 C.ar    1  UNL1        0.1718
     21 C          65.5126   91.6513   13.4006 C.ar    1  UNL1        0.0358
     22 C          64.3367   91.2335   12.5682 C.ar    1  UNL1       -0.0189
     23 C          64.1974   91.7353   11.1616 C.ar    1  UNL1       -0.0010
     24 C          65.2339   92.6549   10.5873 C.ar    1  UNL1        0.0395
     25 C          66.4098   93.0727   11.4196 C.ar    1  UNL1        0.1677
     26 O          67.4463   93.9924   10.8452 O.3     1  UNL1       -0.5029
     27 H          67.3593   94.3059    9.9665 H       1  UNL1        0.2923
     28 C          67.9403   92.3791   15.0121 C.3     1  UNL1        0.2526
     29 O          67.7250   92.9887   13.6586 O.3     1  UNL1       -0.4684
@<TRIPOS>BOND
     1    28    29    1
     2    29    20    1
     3    20    21   ar
     4    21    22   ar
     5    22    19    1
     6     1    19    1
     7     1     2    1
     8     2     3    1
     9     3     4    1
    10     4     6    1
    11     6     7   ar
    12     7     8   ar
    13     8     9   ar
    14     9    10    1
    15     9    11   ar
    16    11    14    1
    17    14    15    1
    18    11    12   ar
    19     4     5    1
    20     5    16    1
    21    16    17    1
    22    22    23   ar
    23    23    24   ar
    24    24    25   ar
    25    25    26    1
    26    25    20   ar
    27     5     1    1
    28    12     6   ar
    29    10    13    1
    30    17    18    1
    31    26    27    1
