@<TRIPOS>MOLECULE
*****
 42 43 0 0 0
SMALL
GASTEIGER

@<TRIPOS>ATOM
      1 O          63.7491   89.3787   13.4694 O.3     1  UNL1       -0.2925
      2 P          63.6401   90.3709   14.5891 P.3     1  UNL1        0.3697
      3 O          62.5033   89.5863   15.1738 O.2     1  UNL1       -0.2553
      4 O          63.5311   91.3632   15.7087 O.3     1  UNL1       -0.3218
      5 H          62.8145   91.0986   16.3065 H       1  UNL1        0.2198
      6 C          64.7769   91.1556   14.0043 C.3     1  UNL1        0.2579
      7 O          66.1657   90.9788   14.5429 O.3     1  UNL1       -0.3426
      8 C          67.0108   92.1801   14.8472 C.3     1  UNL1        0.1387
      9 C          68.0735   92.1015   15.9029 C.3     1  UNL1        0.0342
     10 C          66.7931   93.4601   14.0959 C.3     1  UNL1        0.1384
     11 N          66.9548   93.4913   12.6049 N.ar    1  UNL1       -0.2918
     12 C          67.5689   92.4132   11.7619 C.ar    1  UNL1        0.1798
     13 N          67.5245   92.8618   10.3312 N.ar    1  UNL1       -0.2195
     14 C          66.8829   94.2170   10.2900 C.ar    1  UNL1        0.1481
     15 C          66.5738   95.1471    9.1545 C.ar    1  UNL1        0.1480
     16 N          66.9258   94.7580    7.7493 N.pl3   1  UNL1       -0.3413
     17 N          65.9126   96.4662    9.4242 N.ar    1  UNL1       -0.2078
     18 C          65.5606   96.8552   10.8295 C.ar    1  UNL1        0.2015
     19 N          65.8697   95.9252   11.9650 N.ar    1  UNL1       -0.2048
     20 C          66.5308   94.6061   11.6953 C.ar    1  UNL1        0.1674
     21 H          67.3598   93.8922    7.5723 H       1  UNL1        0.1438
     22 H          66.7229   95.3684    7.0040 H       1  UNL1        0.1438
     23 C          62.6911   89.3270   12.4075 C.3     1  UNL1        0.1540
     24 C          62.8204   90.1763   11.1778 C.3     1  UNL1        0.0646
     25 C          61.6836   90.2626   10.2031 C.3     1  UNL1        0.1448
     26 O          60.5619   89.2689   10.2691 O.3     1  UNL1       -0.3537
     27 C          60.3333   88.3191    9.1309 C.3     1  UNL1        0.1422
     28 C          60.4266   86.8394    9.3586 C.3     1  UNL1        0.0321
     29 C          61.7642   86.1973    9.5794 C.3     1  UNL1        0.0026
     30 C          62.2147   85.8618   10.9702 C.3     1  UNL1        0.0001
     31 C          62.4648   84.4333   11.3535 C.3     1  UNL1        0.0000
     32 C          63.5867   83.6705   10.7138 C.3     1  UNL1        0.0000
     33 C          64.2109   82.5111   11.4323 C.3     1  UNL1        0.0000
     34 C          63.3612   81.3558   11.8719 C.3     1  UNL1        0.0000
     35 C          63.0921   81.1350   13.3309 C.3     1  UNL1        0.0000
     36 C          62.1118   82.0105   14.0537 C.3     1  UNL1        0.0000
     37 C          62.6030   83.0489   15.0183 C.3     1  UNL1        0.0000
     38 C          64.0296   83.5089   14.9630 C.3     1  UNL1        0.0010
     39 C          64.3795   84.7844   14.2556 C.3     1  UNL1        0.0140
     40 C          64.4007   86.0798   15.0115 C.3     1  UNL1        0.0770
     41 C          62.7967   86.3736   17.5297 C.1     1  UNL1       -0.0141
     42 C          63.5986   86.2267   16.2706 C.1     1  UNL1       -0.0779
@<TRIPOS>BOND
     1    41    42    3
     2    42    40    1
     3    40    39    1
     4    39    38    1
     5    38    37    1
     6    37    36    1
     7    36    35    1
     8    35    34    1
     9    34    33    1
    10    33    32    1
    11    32    31    1
    12    31    30    1
    13    30    29    1
    14    29    28    1
    15    28    27    1
    16    27    26    1
    17    26    25    1
    18    25    24    1
    19    24    23    1
    20    23     1    1
    21     1     2    1
    22     2     3    2
    23     2     4    1
    24     2     6    1
    25     6     7    1
    26     7     8    1
    27     8     9    1
    28     8    10    1
    29    10    11    1
    30    11    12   ar
    31    12    13   ar
    32    13    14   ar
    33    14    15   ar
    34    15    16    1
    35    15    17   ar
    36    17    18   ar
    37    18    19   ar
    38    19    20   ar
    39    20    11   ar
    40    20    14   ar
    41     4     5    1
    42    16    21    1
    43    16    22    1
@<TRIPOS>MOLECULE
*****
 42 43 0 0 0
SMALL
GASTEIGER

@<TRIPOS>ATOM
      1 O          62.8890   90.5087   12.1514 O.3     1  UNL1       -0.2925
      2 P          63.4685   89.6273   13.2178 P.3     1  UNL1        0.3697
      3 O          63.1743   88.4190   12.3791 O.2     1  UNL1       -0.2553
      4 O          64.0481   88.7459   14.2842 O.3     1  UNL1       -0.3218
      5 H          63.9936   87.8193   14.0027 H       1  UNL1        0.2198
      6 C          63.7628   90.8356   14.0566 C.3     1  UNL1        0.2579
      7 O          64.5054   91.9967   13.4648 O.3     1  UNL1       -0.3426
      8 C          65.8986   92.3089   13.9245 C.3     1  UNL1        0.1387
      9 C          66.7362   91.2390   14.5599 C.3     1  UNL1        0.0342
     10 C          66.4543   93.6912   13.7489 C.3     1  UNL1        0.1384
     11 N          66.5046   94.3114   12.3841 N.ar    1  UNL1       -0.2918
     12 C          65.9494   95.6520   12.0038 C.ar    1  UNL1        0.1798
     13 N          66.2207   95.8690   10.5446 N.ar    1  UNL1       -0.2195
     14 C          66.9436   94.6626   10.0230 C.ar    1  UNL1        0.1481
     15 C          67.4648   94.3163    8.6598 C.ar    1  UNL1        0.1480
     16 N          67.2893   95.2790    7.5229 N.pl3   1  UNL1       -0.3413
     17 N          68.1614   93.0074    8.4335 N.ar    1  UNL1       -0.2078
     18 C          68.3369   92.0447    9.5703 C.ar    1  UNL1        0.2015
     19 N          67.8157   92.3910   10.9336 N.ar    1  UNL1       -0.2048
     20 C          67.1191   93.7000   11.1599 C.ar    1  UNL1        0.1674
     21 H          66.8321   96.1381    7.6715 H       1  UNL1        0.1438
     22 H          67.6314   95.0517    6.6282 H       1  UNL1        0.1438
     23 C          62.5519   89.9364   10.8066 C.3     1  UNL1        0.1540
     24 C          61.1684   90.0954   10.2491 C.3     1  UNL1        0.0646
     25 C          60.3218   88.8852    9.9869 C.3     1  UNL1        0.1448
     26 O          59.5499   88.7732    8.7057 O.3     1  UNL1       -0.3537
     27 C          59.8503   87.6623    7.7437 C.3     1  UNL1        0.1422
     28 C          60.1675   86.2895    8.2585 C.3     1  UNL1        0.0321
     29 C          61.4670   85.6340    7.8952 C.3     1  UNL1        0.0026
     30 C          62.6091   85.6428    8.8675 C.3     1  UNL1        0.0001
     31 C          62.3398   85.7370   10.3401 C.3     1  UNL1        0.0000
     32 C          62.5105   84.5288   11.2125 C.3     1  UNL1        0.0000
     33 C          63.7349   83.6730   11.0772 C.3     1  UNL1        0.0000
     34 C          63.5972   82.1912   10.8889 C.3     1  UNL1        0.0000
     35 C          62.8813   81.3677   11.9181 C.3     1  UNL1        0.0000
     36 C          63.2140   81.5291   13.3718 C.3     1  UNL1        0.0000
     37 C          62.2284   82.1756   14.2995 C.3     1  UNL1        0.0000
     38 C          62.5740   83.4672   14.9793 C.3     1  UNL1        0.0010
     39 C          63.9039   84.1141   14.7290 C.3     1  UNL1        0.0140
     40 C          64.2339   85.4258   15.3774 C.3     1  UNL1        0.0770
     41 C          62.6157   86.3949   17.7104 C.1     1  UNL1       -0.0141
     42 C          63.4248   85.9104   16.5440 C.1     1  UNL1       -0.0779
@<TRIPOS>BOND
     1    41    42    3
     2    42    40    1
     3    40    39    1
     4    39    38    1
     5    38    37    1
     6    37    36    1
     7    36    35    1
     8    35    34    1
     9    34    33    1
    10    33    32    1
    11    32    31    1
    12    31    30    1
    13    30    29    1
    14    29    28    1
    15    28    27    1
    16    27    26    1
    17    26    25    1
    18    25    24    1
    19    24    23    1
    20    23     1    1
    21     1     2    1
    22     2     3    2
    23     2     4    1
    24     2     6    1
    25     6     7    1
    26     7     8    1
    27     8     9    1
    28     8    10    1
    29    10    11    1
    30    11    12   ar
    31    12    13   ar
    32    13    14   ar
    33    14    15   ar
    34    15    16    1
    35    15    17   ar
    36    17    18   ar
    37    18    19   ar
    38    19    20   ar
    39    20    11   ar
    40    20    14   ar
    41     4     5    1
    42    16    21    1
    43    16    22    1
@<TRIPOS>MOLECULE
*****
 42 43 0 0 0
SMALL
GASTEIGER

@<TRIPOS>ATOM
      1 O          60.5364   89.4747    8.4688 O.3     1  UNL1       -0.2925
      2 P          59.5763   88.4012    8.0493 P.3     1  UNL1        0.3697
      3 O          59.2400   89.1843    6.8150 O.2     1  UNL1       -0.2553
      4 O          58.6162   87.3278    7.6299 O.3     1  UNL1       -0.3218
      5 H          58.2042   87.5738    6.7869 H       1  UNL1        0.2198
      6 C          59.9126   87.6181    9.2837 C.3     1  UNL1        0.2579
      7 O          60.3434   86.1859    9.1692 O.3     1  UNL1       -0.3426
      8 C          61.8022   85.8375    9.1903 C.3     1  UNL1        0.1387
      9 C          62.5178   85.5272    7.9090 C.3     1  UNL1        0.0342
     10 C          62.5454   85.7993   10.4928 C.3     1  UNL1        0.1384
     11 N          62.9052   84.4816   11.1126 N.ar    1  UNL1       -0.2918
     12 C          63.4139   83.2737   10.3831 C.ar    1  UNL1        0.1798
     13 N          63.6426   82.1861   11.3905 N.ar    1  UNL1       -0.2195
     14 C          63.2752   82.7218   12.7425 C.ar    1  UNL1        0.1481
     15 C          63.2968   82.1010   14.1079 C.ar    1  UNL1        0.1480
     16 N          63.7525   80.6823   14.2796 N.pl3   1  UNL1       -0.3413
     17 N          62.8626   82.8990   15.3014 N.ar    1  UNL1       -0.2078
     18 C          62.4069   84.3178   15.1297 C.ar    1  UNL1        0.2015
     19 N          62.3853   84.9385   13.7644 N.ar    1  UNL1       -0.2048
     20 C          62.8195   84.1405   12.5708 C.ar    1  UNL1        0.1674
     21 H          64.0374   80.1585   13.4962 H       1  UNL1        0.1438
     22 H          63.7666   80.2749   15.1757 H       1  UNL1        0.1438
     23 C          60.8868   89.6433    9.9175 C.3     1  UNL1        0.1540
     24 C          62.2151   90.2221   10.3054 C.3     1  UNL1        0.0646
     25 C          62.5712   90.3775   11.7542 C.3     1  UNL1        0.1448
     26 O          62.4972   89.1962   12.6755 O.3     1  UNL1       -0.3537
     27 C          63.7515   88.4778   13.0763 C.3     1  UNL1        0.1422
     28 C          64.3493   88.7118   14.4320 C.3     1  UNL1        0.0321
     29 C          63.7290   89.7113   15.3629 C.3     1  UNL1        0.0026
     30 C          64.0540   91.1690   15.2228 C.3     1  UNL1        0.0001
     31 C          64.7510   91.8924   16.3367 C.3     1  UNL1        0.0000
     32 C          65.9686   92.7194   16.0477 C.3     1  UNL1        0.0000
     33 C          67.2699   92.0492   15.7198 C.3     1  UNL1        0.0000
     34 C          68.0731   92.5079   14.5390 C.3     1  UNL1        0.0000
     35 C          67.7990   91.9384   13.1786 C.3     1  UNL1        0.0000
     36 C          66.3855   91.7835   12.7012 C.3     1  UNL1        0.0000
     37 C          65.5920   92.9922   12.3020 C.3     1  UNL1        0.0000
     38 C          66.2913   94.2891   12.0207 C.3     1  UNL1        0.0010
     39 C          66.1595   94.9355   10.6736 C.3     1  UNL1        0.0140
     40 C          67.2921   94.8631    9.6928 C.3     1  UNL1        0.0770
     41 C          68.6080   92.2302    9.1126 C.1     1  UNL1       -0.0141
     42 C          67.9501   93.5466    9.4027 C.1     1  UNL1       -0.0779
@<TRIPOS>BOND
     1    41    42    3
     2    42    40    1
     3    40    39    1
     4    39    38    1
     5    38    37    1
     6    37    36    1
     7    36    35    1
     8    35    34    1
     9    34    33    1
    10    33    32    1
    11    32    31    1
    12    31    30    1
    13    30    29    1
    14    29    28    1
    15    28    27    1
    16    27    26    1
    17    26    25    1
    18    25    24    1
    19    24    23    1
    20    23     1    1
    21     1     2    1
    22     2     3    2
    23     2     4    1
    24     2     6    1
    25     6     7    1
    26     7     8    1
    27     8     9    1
    28     8    10    1
    29    10    11    1
    30    11    12   ar
    31    12    13   ar
    32    13    14   ar
    33    14    15   ar
    34    15    16    1
    35    15    17   ar
    36    17    18   ar
    37    18    19   ar
    38    19    20   ar
    39    20    11   ar
    40    20    14   ar
    41     4     5    1
    42    16    21    1
    43    16    22    1
@<TRIPOS>MOLECULE
*****
 42 43 0 0 0
SMALL
GASTEIGER

@<TRIPOS>ATOM
      1 O          59.6457   88.6621    8.3384 O.3     1  UNL1       -0.2925
      2 P          59.5931   87.2033    7.9934 P.3     1  UNL1        0.3697
      3 O          58.1771   87.3650    7.5257 O.2     1  UNL1       -0.2553
      4 O          59.5405   85.7445    7.6484 O.3     1  UNL1       -0.3218
      5 H          58.6658   85.5286    7.2889 H       1  UNL1        0.2198
      6 C          61.0091   87.0416    8.4612 C.3     1  UNL1        0.2579
      7 O          61.4296   85.7815    9.1576 O.3     1  UNL1       -0.3426
      8 C          62.5739   84.9738    8.6207 C.3     1  UNL1        0.1387
      9 C          62.7926   84.8751    7.1400 C.3     1  UNL1        0.0342
     10 C          63.4995   84.2648    9.5645 C.3     1  UNL1        0.1384
     11 N          63.2261   84.2841   11.0393 N.ar    1  UNL1       -0.2918
     12 C          63.0611   85.5089   11.8893 C.ar    1  UNL1        0.1798
     13 N          62.8027   85.0638   13.2983 N.ar    1  UNL1       -0.2195
     14 C          62.8080   83.5640   13.3190 C.ar    1  UNL1        0.1481
     15 C          62.6084   82.5748   14.4287 C.ar    1  UNL1        0.1480
     16 N          62.3467   83.0567   15.8249 N.pl3   1  UNL1       -0.3413
     17 N          62.6704   81.1037   14.1423 N.ar    1  UNL1       -0.2078
     18 C          62.9321   80.6219   12.7461 C.ar    1  UNL1        0.2015
     19 N          63.1317   81.6110   11.6364 N.ar    1  UNL1       -0.2048
     20 C          63.0697   83.0821   11.9228 C.ar    1  UNL1        0.1674
     21 H          62.3060   84.0222   16.0129 H       1  UNL1        0.1438
     22 H          62.2157   82.4074   16.5533 H       1  UNL1        0.1438
     23 C          60.5074   89.1342    9.4718 C.3     1  UNL1        0.1540
     24 C          59.8907   89.8574   10.6322 C.3     1  UNL1        0.0646
     25 C          60.5602   89.8306   11.9742 C.3     1  UNL1        0.1448
     26 O          61.9716   89.3380   12.0985 O.3     1  UNL1       -0.3537
     27 C          63.1049   90.3183   12.1664 C.3     1  UNL1        0.1422
     28 C          63.3542   91.2569   11.0233 C.3     1  UNL1        0.0321
     29 C          64.6767   91.9542   10.9001 C.3     1  UNL1        0.0026
     30 C          65.4401   92.3376   12.1331 C.3     1  UNL1        0.0001
     31 C          66.8708   92.7747   12.0239 C.3     1  UNL1        0.0000
     32 C          67.9704   91.8646   12.4849 C.3     1  UNL1        0.0000
     33 C          68.4587   91.9361   13.9014 C.3     1  UNL1        0.0000
     34 C          67.9834   93.0359   14.8039 C.3     1  UNL1        0.0000
     35 C          67.2901   92.7026   16.0916 C.3     1  UNL1        0.0000
     36 C          65.8056   92.4884   16.1105 C.3     1  UNL1        0.0000
     37 C          65.1870   91.4454   15.2278 C.3     1  UNL1        0.0000
     38 C          63.8115   90.9282   15.5285 C.3     1  UNL1        0.0010
     39 C          63.5956   89.4621   15.7610 C.3     1  UNL1        0.0140
     40 C          63.0847   88.9801   17.0864 C.3     1  UNL1        0.0770
     41 C          62.5853   86.0550   17.5277 C.1     1  UNL1       -0.0141
     42 C          62.8350   87.5175   17.3071 C.1     1  UNL1       -0.0779
@<TRIPOS>BOND
     1    41    42    3
     2    42    40    1
     3    40    39    1
     4    39    38    1
     5    38    37    1
     6    37    36    1
     7    36    35    1
     8    35    34    1
     9    34    33    1
    10    33    32    1
    11    32    31    1
    12    31    30    1
    13    30    29    1
    14    29    28    1
    15    28    27    1
    16    27    26    1
    17    26    25    1
    18    25    24    1
    19    24    23    1
    20    23     1    1
    21     1     2    1
    22     2     3    2
    23     2     4    1
    24     2     6    1
    25     6     7    1
    26     7     8    1
    27     8     9    1
    28     8    10    1
    29    10    11    1
    30    11    12   ar
    31    12    13   ar
    32    13    14   ar
    33    14    15   ar
    34    15    16    1
    35    15    17   ar
    36    17    18   ar
    37    18    19   ar
    38    19    20   ar
    39    20    11   ar
    40    20    14   ar
    41     4     5    1
    42    16    21    1
    43    16    22    1
@<TRIPOS>MOLECULE
*****
 42 43 0 0 0
SMALL
GASTEIGER

@<TRIPOS>ATOM
      1 O          63.1499   82.8052   13.5936 O.3     1  UNL1       -0.2925
      2 P          62.9138   81.3695   13.2290 P.3     1  UNL1        0.3697
      3 O          63.4787   80.9408   14.5508 O.2     1  UNL1       -0.2553
      4 O          62.6777   79.9338   12.8643 O.3     1  UNL1       -0.3218
      5 H          62.9712   79.3630   13.5916 H       1  UNL1        0.2198
      6 C          62.3489   81.7981   11.9072 C.3     1  UNL1        0.2579
      7 O          62.3843   83.2440   11.5098 O.3     1  UNL1       -0.3426
      8 C          63.3131   83.7010   10.4241 C.3     1  UNL1        0.1387
      9 C          64.6318   83.0140   10.2268 C.3     1  UNL1        0.0342
     10 C          62.9230   84.8449    9.5356 C.3     1  UNL1        0.1384
     11 N          62.3514   86.0969   10.1322 N.ar    1  UNL1       -0.2918
     12 C          62.6292   86.6241   11.5088 C.ar    1  UNL1        0.1798
     13 N          61.8512   87.8944   11.6843 N.ar    1  UNL1       -0.2195
     14 C          61.0926   88.1524   10.4162 C.ar    1  UNL1        0.1481
     15 C          60.1603   89.2554   10.0111 C.ar    1  UNL1        0.1480
     16 N          59.8511   90.3664   10.9703 N.pl3   1  UNL1       -0.3413
     17 N          59.5371   89.2474    8.6467 N.ar    1  UNL1       -0.2078
     18 C          59.8463   88.1364    7.6875 C.ar    1  UNL1        0.2015
     19 N          60.7786   87.0334    8.0926 N.ar    1  UNL1       -0.2048
     20 C          61.4018   87.0414    9.4570 C.ar    1  UNL1        0.1674
     21 H          60.2601   90.3716   11.8658 H       1  UNL1        0.1438
     22 H          59.2392   91.0903   10.7044 H       1  UNL1        0.1438
     23 C          63.9912   83.1472   14.7874 C.3     1  UNL1        0.1540
     24 C          63.6165   84.3072   15.6616 C.3     1  UNL1        0.0646
     25 C          62.1713   84.6214   15.9121 C.3     1  UNL1        0.1448
     26 O          61.7964   85.7208   16.8611 O.3     1  UNL1       -0.3537
     27 C          62.8623   86.4445   17.6292 C.3     1  UNL1        0.1422
     28 C          62.8689   87.9439   17.6722 C.3     1  UNL1        0.0321
     29 C          63.2734   88.7272   16.4585 C.3     1  UNL1        0.0026
     30 C          63.9652   88.0402   15.3187 C.3     1  UNL1        0.0001
     31 C          64.3298   88.8140   14.0866 C.3     1  UNL1        0.0000
     32 C          64.2703   90.3128   14.0971 C.3     1  UNL1        0.0000
     33 C          63.5143   91.0409   13.0256 C.3     1  UNL1        0.0000
     34 C          63.7499   90.7067   11.5824 C.3     1  UNL1        0.0000
     35 C          63.8657   91.8050   10.5674 C.3     1  UNL1        0.0000
     36 C          64.9908   92.7930   10.6563 C.3     1  UNL1        0.0000
     37 C          66.3307   92.3592   11.1725 C.3     1  UNL1        0.0000
     38 C          66.7579   92.7366   12.5600 C.3     1  UNL1        0.0010
     39 C          67.5794   91.7841   13.3771 C.3     1  UNL1        0.0140
     40 C          67.5973   91.9010   14.8724 C.3     1  UNL1        0.0770
     41 C          69.0625   94.1678   16.1822 C.1     1  UNL1       -0.0141
     42 C          68.3299   93.0345   15.5273 C.1     1  UNL1       -0.0779
@<TRIPOS>BOND
     1    41    42    3
     2    42    40    1
     3    40    39    1
     4    39    38    1
     5    38    37    1
     6    37    36    1
     7    36    35    1
     8    35    34    1
     9    34    33    1
    10    33    32    1
    11    32    31    1
    12    31    30    1
    13    30    29    1
    14    29    28    1
    15    28    27    1
    16    27    26    1
    17    26    25    1
    18    25    24    1
    19    24    23    1
    20    23     1    1
    21     1     2    1
    22     2     3    2
    23     2     4    1
    24     2     6    1
    25     6     7    1
    26     7     8    1
    27     8     9    1
    28     8    10    1
    29    10    11    1
    30    11    12   ar
    31    12    13   ar
    32    13    14   ar
    33    14    15   ar
    34    15    16    1
    35    15    17   ar
    36    17    18   ar
    37    18    19   ar
    38    19    20   ar
    39    20    11   ar
    40    20    14   ar
    41     4     5    1
    42    16    21    1
    43    16    22    1
@<TRIPOS>MOLECULE
*****
 42 43 0 0 0
SMALL
GASTEIGER

@<TRIPOS>ATOM
      1 O          62.3868   82.6777   12.0352 O.3     1  UNL1       -0.2925
      2 P          63.7237   82.7711   11.3614 P.3     1  UNL1        0.3697
      3 O          64.2297   81.6415   12.2088 O.2     1  UNL1       -0.2553
      4 O          65.0605   82.8644   10.6875 O.3     1  UNL1       -0.3218
      5 H          65.6572   82.1959   11.0589 H       1  UNL1        0.2198
      6 C          63.2176   83.9006   10.5140 C.3     1  UNL1        0.2579
      7 O          63.2373   83.7836    9.0187 O.3     1  UNL1       -0.3426
      8 C          62.9105   84.9756    8.1688 C.3     1  UNL1        0.1387
      9 C          62.4615   84.7849    6.7503 C.3     1  UNL1        0.0342
     10 C          63.0327   86.3584    8.7373 C.3     1  UNL1        0.1384
     11 N          61.8231   87.0512    9.2912 N.ar    1  UNL1       -0.2918
     12 C          60.4226   86.9339    8.7670 C.ar    1  UNL1        0.1798
     13 N          59.5355   87.7931    9.6185 N.ar    1  UNL1       -0.2195
     14 C          60.3878   88.4414   10.6688 C.ar    1  UNL1        0.1481
     15 C          60.0592   89.3900   11.7833 C.ar    1  UNL1        0.1480
     16 N          58.6454   89.8486   11.9856 N.pl3   1  UNL1       -0.3413
     17 N          61.1444   89.8801   12.6955 N.ar    1  UNL1       -0.2078
     18 C          62.5582   89.4215   12.4933 C.ar    1  UNL1        0.2015
     19 N          62.8868   88.4729   11.3788 N.ar    1  UNL1       -0.2048
     20 C          61.8016   87.9829   10.4666 C.ar    1  UNL1        0.1674
     21 H          57.9332   89.5269   11.3868 H       1  UNL1        0.1438
     22 H          58.4297   90.4712   12.7170 H       1  UNL1        0.1438
     23 C          62.1523   81.6437   13.0963 C.3     1  UNL1        0.1540
     24 C          61.9717   82.0628   14.5251 C.3     1  UNL1        0.0646
     25 C          62.5740   83.3475   15.0117 C.3     1  UNL1        0.1448
     26 O          64.0578   83.4547   15.2039 O.3     1  UNL1       -0.3537
     27 C          64.8587   84.3931   14.3507 C.3     1  UNL1        0.1422
     28 C          65.3004   85.7163   14.9020 C.3     1  UNL1        0.0321
     29 C          64.2885   86.7875   15.1826 C.3     1  UNL1        0.0026
     30 C          63.4546   86.7239   16.4278 C.3     1  UNL1        0.0001
     31 C          63.1069   87.9843   17.1629 C.3     1  UNL1        0.0000
     32 C          62.6965   89.2087   16.3998 C.3     1  UNL1        0.0000
     33 C          63.5370   90.4494   16.4642 C.3     1  UNL1        0.0000
     34 C          64.1323   91.0180   15.2103 C.3     1  UNL1        0.0000
     35 C          65.6118   91.2474   15.1195 C.3     1  UNL1        0.0000
     36 C          66.1726   92.6213   15.3383 C.3     1  UNL1        0.0000
     37 C          66.8216   93.3561   14.2030 C.3     1  UNL1        0.0000
     38 C          66.8951   92.7236   12.8449 C.3     1  UNL1        0.0010
     39 C          65.7630   92.8940   11.8758 C.3     1  UNL1        0.0140
     40 C          66.0482   93.2011   10.4356 C.3     1  UNL1        0.0770
     41 C          68.7010   92.4669    9.2422 C.1     1  UNL1       -0.0141
     42 C          67.3747   92.8340    9.8389 C.1     1  UNL1       -0.0779
@<TRIPOS>BOND
     1    41    42    3
     2    42    40    1
     3    40    39    1
     4    39    38    1
     5    38    37    1
     6    37    36    1
     7    36    35    1
     8    35    34    1
     9    34    33    1
    10    33    32    1
    11    32    31    1
    12    31    30    1
    13    30    29    1
    14    29    28    1
    15    28    27    1
    16    27    26    1
    17    26    25    1
    18    25    24    1
    19    24    23    1
    20    23     1    1
    21     1     2    1
    22     2     3    2
    23     2     4    1
    24     2     6    1
    25     6     7    1
    26     7     8    1
    27     8     9    1
    28     8    10    1
    29    10    11    1
    30    11    12   ar
    31    12    13   ar
    32    13    14   ar
    33    14    15   ar
    34    15    16    1
    35    15    17   ar
    36    17    18   ar
    37    18    19   ar
    38    19    20   ar
    39    20    11   ar
    40    20    14   ar
    41     4     5    1
    42    16    21    1
    43    16    22    1
@<TRIPOS>MOLECULE
*****
 42 43 0 0 0
SMALL
GASTEIGER

@<TRIPOS>ATOM
      1 O          63.9929   82.9736   12.9718 O.3     1  UNL1       -0.2925
      2 P          63.3525   82.8873   14.3255 P.3     1  UNL1        0.3697
      3 O          63.3907   81.3898   14.2481 O.2     1  UNL1       -0.2553
      4 O          62.7120   82.8010   15.6791 O.3     1  UNL1       -0.3218
      5 H          62.5973   81.8694   15.9237 H       1  UNL1        0.2198
      6 C          63.3143   84.3848   14.4029 C.3     1  UNL1        0.2579
      7 O          62.8311   85.0592   15.6525 O.3     1  UNL1       -0.3426
      8 C          63.4232   86.3715   16.0735 C.3     1  UNL1        0.1387
      9 C          62.9021   87.0727   17.2929 C.3     1  UNL1        0.0342
     10 C          64.5363   86.9828   15.2750 C.3     1  UNL1        0.1384
     11 N          64.2724   88.1862   14.4194 N.ar    1  UNL1       -0.2918
     12 C          64.6968   89.5928   14.7212 C.ar    1  UNL1        0.1798
     13 N          64.2245   90.4701   13.6000 N.ar    1  UNL1       -0.2195
     14 C          63.5081   89.6057   12.6052 C.ar    1  UNL1        0.1481
     15 C          62.8327   89.9216   11.3037 C.ar    1  UNL1        0.1480
     16 N          62.8030   91.3332   10.7972 N.pl3   1  UNL1       -0.3413
     17 N          62.1869   88.8258   10.5086 N.ar    1  UNL1       -0.2078
     18 C          62.2165   87.4142   11.0150 C.ar    1  UNL1        0.2015
     19 N          62.8919   87.0983   12.3165 N.ar    1  UNL1       -0.2048
     20 C          63.5377   88.1941   13.1116 C.ar    1  UNL1        0.1674
     21 H          63.2269   92.0524   11.3191 H       1  UNL1        0.1438
     22 H          62.3597   91.5405    9.9430 H       1  UNL1        0.1438
     23 C          63.7108   81.9219   11.9402 C.3     1  UNL1        0.1540
     24 C          63.9292   82.2198   10.4863 C.3     1  UNL1        0.0646
     25 C          64.0974   83.6382   10.0284 C.3     1  UNL1        0.1448
     26 O          62.9214   84.3961    9.4875 O.3     1  UNL1       -0.3537
     27 C          63.0754   85.2424    8.2586 C.3     1  UNL1        0.1422
     28 C          62.2139   84.9851    7.0579 C.3     1  UNL1        0.0321
     29 C          60.7644   85.3706    7.0783 C.3     1  UNL1        0.0026
     30 C          60.2254   86.2026    8.2040 C.3     1  UNL1        0.0001
     31 C          60.1141   87.6906    8.0504 C.3     1  UNL1        0.0000
     32 C          59.0767   88.2750    7.1381 C.3     1  UNL1        0.0000
     33 C          59.3687   89.5365    6.3810 C.3     1  UNL1        0.0000
     34 C          58.2788   90.5401    6.1470 C.3     1  UNL1        0.0000
     35 C          58.2140   91.2879    4.8484 C.3     1  UNL1        0.0000
     36 C          59.0834   92.4908    4.6313 C.3     1  UNL1        0.0000
     37 C          60.2081   92.4343    3.6404 C.3     1  UNL1        0.0000
     38 C          60.1626   93.2840    2.4051 C.3     1  UNL1        0.0010
     39 C          61.0926   92.9981    1.2635 C.3     1  UNL1        0.0140
     40 C          62.5664   92.8690    1.5109 C.3     1  UNL1        0.0770
     41 C          63.6044   90.6790    3.2793 C.1     1  UNL1       -0.0141
     42 C          63.0854   91.7740    2.3951 C.1     1  UNL1       -0.0779
@<TRIPOS>BOND
     1    41    42    3
     2    42    40    1
     3    40    39    1
     4    39    38    1
     5    38    37    1
     6    37    36    1
     7    36    35    1
     8    35    34    1
     9    34    33    1
    10    33    32    1
    11    32    31    1
    12    31    30    1
    13    30    29    1
    14    29    28    1
    15    28    27    1
    16    27    26    1
    17    26    25    1
    18    25    24    1
    19    24    23    1
    20    23     1    1
    21     1     2    1
    22     2     3    2
    23     2     4    1
    24     2     6    1
    25     6     7    1
    26     7     8    1
    27     8     9    1
    28     8    10    1
    29    10    11    1
    30    11    12   ar
    31    12    13   ar
    32    13    14   ar
    33    14    15   ar
    34    15    16    1
    35    15    17   ar
    36    17    18   ar
    37    18    19   ar
    38    19    20   ar
    39    20    11   ar
    40    20    14   ar
    41     4     5    1
    42    16    21    1
    43    16    22    1
@<TRIPOS>MOLECULE
*****
 42 43 0 0 0
SMALL
GASTEIGER

@<TRIPOS>ATOM
      1 O          62.7053   90.2875   12.8161 O.3     1  UNL1       -0.2925
      2 P          63.7061   89.5650   13.6683 P.3     1  UNL1        0.3697
      3 O          63.5691   88.3501   12.7992 O.2     1  UNL1       -0.2553
      4 O          64.7070   88.8424   14.5205 O.3     1  UNL1       -0.3218
      5 H          64.8392   87.9460   14.1743 H       1  UNL1        0.2198
      6 C          63.8432   90.7798   14.5374 C.3     1  UNL1        0.2579
      7 O          64.5534   91.9956   14.0205 O.3     1  UNL1       -0.3426
      8 C          65.9351   92.3202   14.5058 C.3     1  UNL1        0.1387
      9 C          66.2118   92.4080   15.9775 C.3     1  UNL1        0.0342
     10 C          67.0403   92.5569   13.5195 C.3     1  UNL1        0.1384
     11 N          66.8026   93.4279   12.3216 N.ar    1  UNL1       -0.2918
     12 C          65.9477   94.6598   12.2830 C.ar    1  UNL1        0.1798
     13 N          65.9949   95.2132   10.8895 N.ar    1  UNL1       -0.2195
     14 C          66.8789   94.3232   10.0670 C.ar    1  UNL1        0.1481
     15 C          67.2938   94.3750    8.6265 C.ar    1  UNL1        0.1480
     16 N          66.7946   95.4784    7.7414 N.pl3   1  UNL1       -0.3413
     17 N          68.2079   93.3234    8.0711 N.ar    1  UNL1       -0.2078
     18 C          68.7071   92.2200    8.9562 C.ar    1  UNL1        0.2015
     19 N          68.2922   92.1683   10.3967 N.ar    1  UNL1       -0.2048
     20 C          67.3781   93.2198   10.9521 C.ar    1  UNL1        0.1674
     21 H          66.1946   96.1686    8.1060 H       1  UNL1        0.1438
     22 H          67.0669   95.5124    6.7959 H       1  UNL1        0.1438
     23 C          62.4836   89.8616   11.3951 C.3     1  UNL1        0.1540
     24 C          61.2630   89.0693   11.0313 C.3     1  UNL1        0.0646
     25 C          60.1723   89.7025   10.2193 C.3     1  UNL1        0.1448
     26 O          60.3505   89.8916    8.7420 O.3     1  UNL1       -0.3537
     27 C          59.7268   88.9232    7.7812 C.3     1  UNL1        0.1422
     28 C          59.3369   87.5514    8.2461 C.3     1  UNL1        0.0321
     29 C          60.2478   86.3867    7.9934 C.3     1  UNL1        0.0026
     30 C          61.4834   86.2068    8.8247 C.3     1  UNL1        0.0001
     31 C          61.3982   85.5226   10.1567 C.3     1  UNL1        0.0000
     32 C          62.5806   85.5278   11.0796 C.3     1  UNL1        0.0000
     33 C          62.4311   85.0477   12.4929 C.3     1  UNL1        0.0000
     34 C          63.5238   85.2981   13.4895 C.3     1  UNL1        0.0000
     35 C          63.3995   84.7689   14.8875 C.3     1  UNL1        0.0000
     36 C          63.1521   83.3074   15.1171 C.3     1  UNL1        0.0000
     37 C          64.1279   82.2915   14.6016 C.3     1  UNL1        0.0000
     38 C          63.6337   81.0892   13.8530 C.3     1  UNL1        0.0010
     39 C          62.4210   81.1974   12.9770 C.3     1  UNL1        0.0140
     40 C          62.5732   81.2206   11.4849 C.3     1  UNL1        0.0770
     41 C          64.6426   82.9831   10.2154 C.1     1  UNL1       -0.0141
     42 C          63.6079   82.1019   10.8502 C.1     1  UNL1       -0.0779
@<TRIPOS>BOND
     1    41    42    3
     2    42    40    1
     3    40    39    1
     4    39    38    1
     5    38    37    1
     6    37    36    1
     7    36    35    1
     8    35    34    1
     9    34    33    1
    10    33    32    1
    11    32    31    1
    12    31    30    1
    13    30    29    1
    14    29    28    1
    15    28    27    1
    16    27    26    1
    17    26    25    1
    18    25    24    1
    19    24    23    1
    20    23     1    1
    21     1     2    1
    22     2     3    2
    23     2     4    1
    24     2     6    1
    25     6     7    1
    26     7     8    1
    27     8     9    1
    28     8    10    1
    29    10    11    1
    30    11    12   ar
    31    12    13   ar
    32    13    14   ar
    33    14    15   ar
    34    15    16    1
    35    15    17   ar
    36    17    18   ar
    37    18    19   ar
    38    19    20   ar
    39    20    11   ar
    40    20    14   ar
    41     4     5    1
    42    16    21    1
    43    16    22    1
@<TRIPOS>MOLECULE
*****
 42 43 0 0 0
SMALL
GASTEIGER

@<TRIPOS>ATOM
      1 O          62.2799   90.4051   10.5202 O.3     1  UNL1       -0.2925
      2 P          61.2016   89.6865   11.2756 P.3     1  UNL1        0.3697
      3 O          62.1451   89.4764   12.4226 O.2     1  UNL1       -0.2553
      4 O          60.1232   88.9679   12.0311 O.3     1  UNL1       -0.3218
      5 H          60.4661   88.6849   12.8932 H       1  UNL1        0.2198
      6 C          60.2580   89.8967   10.1287 C.3     1  UNL1        0.2579
      7 O          60.6935   89.5733    8.7302 O.3     1  UNL1       -0.3426
      8 C          59.8197   88.7317    7.8481 C.3     1  UNL1        0.1387
      9 C          59.2099   89.3236    6.6121 C.3     1  UNL1        0.0342
     10 C          59.5556   87.2981    8.2022 C.3     1  UNL1        0.1384
     11 N          60.6953   86.3281    8.3024 N.ar    1  UNL1       -0.2918
     12 C          61.3546   85.6208    7.1556 C.ar    1  UNL1        0.1798
     13 N          62.4426   84.7507    7.7116 N.ar    1  UNL1       -0.2195
     14 C          62.4558   84.9202    9.2019 C.ar    1  UNL1        0.1481
     15 C          63.3116   84.3128   10.2736 C.ar    1  UNL1        0.1480
     16 N          64.3915   83.3379    9.9085 N.pl3   1  UNL1       -0.3413
     17 N          63.0875   84.6803   11.7105 N.ar    1  UNL1       -0.2078
     18 C          62.0076   85.6553   12.0757 C.ar    1  UNL1        0.2015
     19 N          61.1518   86.2627   11.0040 N.ar    1  UNL1       -0.2048
     20 C          61.3759   85.8951    9.5671 C.ar    1  UNL1        0.1674
     21 H          64.5386   83.0967    8.9654 H       1  UNL1        0.1438
     22 H          64.9532   82.9393   10.6119 H       1  UNL1        0.1438
     23 C          63.4582   90.9738   11.2537 C.3     1  UNL1        0.1540
     24 C          64.3405   91.9862   10.5855 C.3     1  UNL1        0.0646
     25 C          65.2930   92.8071   11.4033 C.3     1  UNL1        0.1448
     26 O          66.1968   92.1391   12.3968 O.3     1  UNL1       -0.3537
     27 C          66.4718   92.7927   13.7185 C.3     1  UNL1        0.1422
     28 C          66.1030   92.0924   14.9927 C.3     1  UNL1        0.0321
     29 C          65.4275   90.7539   14.9445 C.3     1  UNL1        0.0026
     30 C          63.9302   90.6679   14.9718 C.3     1  UNL1        0.0001
     31 C          63.2411   89.9364   16.0853 C.3     1  UNL1        0.0000
     32 C          63.5041   88.4751   16.2984 C.3     1  UNL1        0.0000
     33 C          62.8114   87.7426   17.4091 C.3     1  UNL1        0.0000
     34 C          62.9902   86.2606   17.5561 C.3     1  UNL1        0.0000
     35 C          62.5105   85.3365   16.4764 C.3     1  UNL1        0.0000
     36 C          63.3941   85.0306   15.3035 C.3     1  UNL1        0.0000
     37 C          64.1582   83.7407   15.2564 C.3     1  UNL1        0.0000
     38 C          63.6171   82.5763   14.4809 C.3     1  UNL1        0.0010
     39 C          62.1404   82.3145   14.4537 C.3     1  UNL1        0.0140
     40 C          61.6060   81.1052   13.7452 C.3     1  UNL1        0.0770
     41 C          58.9009   80.0219   14.4588 C.1     1  UNL1       -0.0141
     42 C          60.2534   80.5635   14.1020 C.1     1  UNL1       -0.0779
@<TRIPOS>BOND
     1    41    42    3
     2    42    40    1
     3    40    39    1
     4    39    38    1
     5    38    37    1
     6    37    36    1
     7    36    35    1
     8    35    34    1
     9    34    33    1
    10    33    32    1
    11    32    31    1
    12    31    30    1
    13    30    29    1
    14    29    28    1
    15    28    27    1
    16    27    26    1
    17    26    25    1
    18    25    24    1
    19    24    23    1
    20    23     1    1
    21     1     2    1
    22     2     3    2
    23     2     4    1
    24     2     6    1
    25     6     7    1
    26     7     8    1
    27     8     9    1
    28     8    10    1
    29    10    11    1
    30    11    12   ar
    31    12    13   ar
    32    13    14   ar
    33    14    15   ar
    34    15    16    1
    35    15    17   ar
    36    17    18   ar
    37    18    19   ar
    38    19    20   ar
    39    20    11   ar
    40    20    14   ar
    41     4     5    1
    42    16    21    1
    43    16    22    1
