@<TRIPOS>MOLECULE
*****
 25 26 0 0 0
SMALL
GASTEIGER

@<TRIPOS>ATOM
      1 N          63.6372   88.1167   13.4559 N.3     1  UNL1       -0.1559
      2 C          62.9264   87.6455   12.2219 C.3     1  UNL1        0.1168
      3 C          62.7525   86.1769   11.9713 C.3     1  UNL1        0.1099
      4 N          63.2894   85.1794   12.9545 N.pl3   1  UNL1       -0.3045
      5 C          64.0002   85.6507   14.1885 C.3     1  UNL1        0.1099
      6 C          64.1741   87.1193   14.4392 C.3     1  UNL1        0.1168
      7 C          63.1154   83.7108   12.7039 C.ar    1  UNL1        0.0481
      8 C          63.4046   83.1423   11.3463 C.ar    1  UNL1        0.0168
      9 C          63.2307   81.6736   11.0956 C.ar    1  UNL1        0.0309
     10 C          62.7676   80.7735   12.2025 C.ar    1  UNL1        0.1402
     11 F          62.5937   79.3049   11.9519 F       1  UNL1       -0.2042
     12 C          62.4784   81.3420   13.5601 C.ar    1  UNL1        0.0309
     13 C          62.6523   82.8107   13.8108 C.ar    1  UNL1        0.0168
     14 S          63.8111   89.5854   13.7066 S.O2    1  UNL1        0.0456
     15 O          65.0929   89.3092   14.4350 O.2     1  UNL1       -0.1572
     16 O          62.5293   89.8615   12.9781 O.2     1  UNL1       -0.1572
     17 C          63.9850   91.0540   13.9572 C.3     1  UNL1        0.1895
     18 C          64.4937   91.6081   11.9738 C.3     1  UNL1        0.0243
     19 C          65.1249   91.7935   13.3218 C.3     1  UNL1        0.1101
     20 C          65.7561   91.9788   14.6699 C.3     1  UNL1        0.0243
     21 N          66.2648   92.5330   12.6864 N.am    1  UNL1       -0.1662
     22 O          67.6790   92.1682   13.0283 O.3     1  UNL1       -0.2915
     23 C          65.9905   93.6372   11.7089 C.2     1  UNL1        0.3267
     24 O          67.1305   94.3768   11.0735 O.2     1  UNL1       -0.2627
     25 H          67.6792   91.4406   13.6698 H       1  UNL1        0.2417
@<TRIPOS>BOND
     1    18    19    1
     2    19    20    1
     3    19    17    1
     4    17    14    1
     5    14    15    2
     6    14    16    2
     7    14     1    1
     8     1     2    1
     9     2     3    1
    10     3     4    1
    11     4     7    1
    12     7     8   ar
    13     8     9   ar
    14     9    10   ar
    15    10    11    1
    16    10    12   ar
    17    12    13   ar
    18     4     5    1
    19     5     6    1
    20    19    21    1
    21    21    22    1
    22    21    23   am
    23    23    24    2
    24     6     1    1
    25    13     7   ar
    26    22    25    1
@<TRIPOS>MOLECULE
*****
 25 26 0 0 0
SMALL
GASTEIGER

@<TRIPOS>ATOM
      1 N          63.6356   88.1126   13.4632 N.3     1  UNL1       -0.1559
      2 C          64.1696   87.1127   14.4456 C.3     1  UNL1        0.1168
      3 C          63.9968   85.6447   14.1905 C.3     1  UNL1        0.1099
      4 N          63.2901   85.1766   12.9531 N.pl3   1  UNL1       -0.3045
      5 C          62.7561   86.1765   11.9707 C.3     1  UNL1        0.1099
      6 C          62.9288   87.6445   12.2258 C.3     1  UNL1        0.1168
      7 C          63.1173   83.7086   12.6980 C.ar    1  UNL1        0.0481
      8 C          63.4037   83.1449   11.3378 C.ar    1  UNL1        0.0168
      9 C          63.2310   81.6768   11.0827 C.ar    1  UNL1        0.0309
     10 C          62.7718   80.7725   12.1878 C.ar    1  UNL1        0.1402
     11 F          62.5990   79.3045   11.9327 F       1  UNL1       -0.2042
     12 C          62.4853   81.3362   13.5480 C.ar    1  UNL1        0.0309
     13 C          62.6581   82.8042   13.8031 C.ar    1  UNL1        0.0168
     14 S          63.8084   89.5806   13.7183 S.O2    1  UNL1        0.0456
     15 O          62.5165   89.8562   13.0077 O.2     1  UNL1       -0.1572
     16 O          65.1003   89.3051   14.4290 O.2     1  UNL1       -0.1572
     17 C          63.9811   91.0487   13.9734 C.3     1  UNL1        0.1895
     18 C          64.4916   91.6078   11.9918 C.3     1  UNL1        0.0243
     19 C          65.1210   91.7907   13.3410 C.3     1  UNL1        0.1101
     20 C          65.7505   91.9736   14.6902 C.3     1  UNL1        0.0243
     21 N          66.2609   92.5328   12.7085 N.am    1  UNL1       -0.1662
     22 O          67.6734   92.2107   13.0975 O.3     1  UNL1       -0.2915
     23 C          65.9884   93.5970   11.6872 C.2     1  UNL1        0.3267
     24 O          67.1283   94.3391   11.0547 O.2     1  UNL1       -0.2627
     25 H          67.6725   91.5055   13.7635 H       1  UNL1        0.2417
@<TRIPOS>BOND
     1    18    19    1
     2    19    20    1
     3    19    17    1
     4    17    14    1
     5    14    15    2
     6    14    16    2
     7    14     1    1
     8     1     2    1
     9     2     3    1
    10     3     4    1
    11     4     7    1
    12     7     8   ar
    13     8     9   ar
    14     9    10   ar
    15    10    11    1
    16    10    12   ar
    17    12    13   ar
    18     4     5    1
    19     5     6    1
    20    19    21    1
    21    21    22    1
    22    21    23   am
    23    23    24    2
    24     6     1    1
    25    13     7   ar
    26    22    25    1
@<TRIPOS>MOLECULE
*****
 25 26 0 0 0
SMALL
GASTEIGER

@<TRIPOS>ATOM
      1 N          62.4243   90.0879   11.7963 N.3     1  UNL1       -0.1559
      2 C          62.6650   89.6731   13.2176 C.3     1  UNL1        0.1168
      3 C          63.8274   90.2398   13.9777 C.3     1  UNL1        0.1099
      4 N          64.7491   91.2212   13.3165 N.pl3   1  UNL1       -0.3045
      5 C          64.5084   91.6360   11.8953 C.3     1  UNL1        0.1099
      6 C          63.3460   91.0693   11.1352 C.3     1  UNL1        0.1168
      7 C          65.9115   91.7879   14.0766 C.ar    1  UNL1        0.0481
      8 C          67.2552   91.8984   13.4194 C.ar    1  UNL1        0.0168
      9 C          68.4176   92.4650   14.1795 C.ar    1  UNL1        0.0309
     10 C          68.2362   92.9212   15.5968 C.ar    1  UNL1        0.1402
     11 F          69.3986   93.4879   16.3569 F       1  UNL1       -0.2042
     12 C          66.8925   92.8108   16.2541 C.ar    1  UNL1        0.0309
     13 C          65.7301   92.2441   15.4940 C.ar    1  UNL1        0.0168
     14 S          61.2619   89.5213   11.0362 S.O2    1  UNL1        0.0456
     15 O          62.0212   89.6851    9.7530 O.2     1  UNL1       -0.1572
     16 O          60.5027   89.3574   12.3194 O.2     1  UNL1       -0.1572
     17 C          60.0995   88.9546   10.2761 C.3     1  UNL1        0.1895
     18 C          59.7534   88.6206    8.2101 C.3     1  UNL1        0.0243
     19 C          60.3065   87.8020    9.3388 C.3     1  UNL1        0.1101
     20 C          60.8596   86.9834   10.4675 C.3     1  UNL1        0.0243
     21 N          60.5135   86.6494    8.4014 N.am    1  UNL1       -0.1662
     22 O          59.3593   86.1101    7.6095 O.3     1  UNL1       -0.2915
     23 C          61.8746   86.0361    8.2559 C.2     1  UNL1        0.3267
     24 O          62.0816   84.8834    7.3184 O.2     1  UNL1       -0.2627
     25 H          58.5586   86.6155    7.8200 H       1  UNL1        0.2417
@<TRIPOS>BOND
     1    18    19    1
     2    19    20    1
     3    19    17    1
     4    17    14    1
     5    14    15    2
     6    14    16    2
     7    14     1    1
     8     1     2    1
     9     2     3    1
    10     3     4    1
    11     4     7    1
    12     7     8   ar
    13     8     9   ar
    14     9    10   ar
    15    10    11    1
    16    10    12   ar
    17    12    13   ar
    18     4     5    1
    19     5     6    1
    20    19    21    1
    21    21    22    1
    22    21    23   am
    23    23    24    2
    24     6     1    1
    25    13     7   ar
    26    22    25    1
@<TRIPOS>MOLECULE
*****
 25 26 0 0 0
SMALL
GASTEIGER

@<TRIPOS>ATOM
      1 N          62.4206   90.0889   11.7959 N.3     1  UNL1       -0.1559
      2 C          63.3611   91.0469   11.1268 C.3     1  UNL1        0.1168
      3 C          64.5210   91.6152   11.8895 C.3     1  UNL1        0.1099
      4 N          64.7405   91.2255   13.3212 N.pl3   1  UNL1       -0.3045
      5 C          63.8000   90.2675   13.9903 C.3     1  UNL1        0.1099
      6 C          62.6401   89.6992   13.2276 C.3     1  UNL1        0.1168
      7 C          65.9004   91.7938   14.0838 C.ar    1  UNL1        0.0481
      8 C          65.7125   92.2607   15.4969 C.ar    1  UNL1        0.0168
      9 C          66.8724   92.8290   16.2595 C.ar    1  UNL1        0.0309
     10 C          68.2202   92.9304   15.6092 C.ar    1  UNL1        0.1402
     11 F          69.3801   93.4986   16.3718 F       1  UNL1       -0.2042
     12 C          68.4081   92.4635   14.1961 C.ar    1  UNL1        0.0309
     13 C          67.2482   91.8952   13.4335 C.ar    1  UNL1        0.0168
     14 S          61.2607   89.5206   11.0332 S.O2    1  UNL1        0.0456
     15 O          60.4915   89.3737   12.3126 O.2     1  UNL1       -0.1572
     16 O          62.0299   89.6675    9.7539 O.2     1  UNL1       -0.1572
     17 C          60.1008   88.9523   10.2706 C.3     1  UNL1        0.1895
     18 C          59.7428   88.6072    8.2084 C.3     1  UNL1        0.0243
     19 C          60.3108   87.7978    9.3363 C.3     1  UNL1        0.1101
     20 C          60.8788   86.9884   10.4643 C.3     1  UNL1        0.0243
     21 N          60.5208   86.6432    8.4020 N.am    1  UNL1       -0.1662
     22 O          59.3712   86.1081    7.6008 O.3     1  UNL1       -0.2915
     23 C          61.8805   86.0238    8.2689 C.2     1  UNL1        0.3267
     24 O          62.0905   84.8693    7.3346 O.2     1  UNL1       -0.2627
     25 H          58.5709   86.6172    7.8038 H       1  UNL1        0.2417
@<TRIPOS>BOND
     1    18    19    1
     2    19    20    1
     3    19    17    1
     4    17    14    1
     5    14    15    2
     6    14    16    2
     7    14     1    1
     8     1     2    1
     9     2     3    1
    10     3     4    1
    11     4     7    1
    12     7     8   ar
    13     8     9   ar
    14     9    10   ar
    15    10    11    1
    16    10    12   ar
    17    12    13   ar
    18     4     5    1
    19     5     6    1
    20    19    21    1
    21    21    22    1
    22    21    23   am
    23    23    24    2
    24     6     1    1
    25    13     7   ar
    26    22    25    1
@<TRIPOS>MOLECULE
*****
 25 26 0 0 0
SMALL
GASTEIGER

@<TRIPOS>ATOM
      1 N          62.5972   87.8443   11.9260 N.3     1  UNL1       -0.1559
      2 C          63.4875   87.2376   12.9696 C.3     1  UNL1        0.1168
      3 C          63.5002   85.7515   13.1728 C.3     1  UNL1        0.1099
      4 N          62.6225   84.8721   12.3324 N.pl3   1  UNL1       -0.3045
      5 C          61.7322   85.4788   11.2888 C.3     1  UNL1        0.1099
      6 C          61.7196   86.9649   11.0856 C.3     1  UNL1        0.1168
      7 C          62.6352   83.3860   12.5356 C.ar    1  UNL1        0.0481
      8 C          63.0725   82.4805   11.4226 C.ar    1  UNL1        0.0168
      9 C          63.0852   80.9944   11.6258 C.ar    1  UNL1        0.0309
     10 C          62.6605   80.4137   12.9420 C.ar    1  UNL1        0.1402
     11 F          62.6731   78.9276   13.1452 F       1  UNL1       -0.2042
     12 C          62.2231   81.3192   14.0550 C.ar    1  UNL1        0.0309
     13 C          62.2105   82.8053   13.8518 C.ar    1  UNL1        0.0168
     14 S          62.5846   89.3304   11.7228 S.O2    1  UNL1        0.0456
     15 O          62.2225   89.5246   13.1654 O.2     1  UNL1       -0.1572
     16 O          62.9466   89.1362   10.2801 O.2     1  UNL1       -0.1572
     17 C          62.5719   90.8165   11.5196 C.3     1  UNL1        0.1895
     18 C          64.1197   91.2616   12.9002 C.3     1  UNL1        0.0243
     19 C          63.8640   91.5759   11.4560 C.3     1  UNL1        0.1101
     20 C          63.6082   91.8901   10.0118 C.3     1  UNL1        0.0243
     21 N          65.1561   92.3352   11.3924 N.am    1  UNL1       -0.1662
     22 O          65.4899   93.1469   10.1760 O.3     1  UNL1       -0.2915
     23 C          66.1143   92.2828   12.5452 C.2     1  UNL1        0.3267
     24 O          67.4064   93.0421   12.4817 O.2     1  UNL1       -0.2627
     25 H          64.7697   93.0730    9.5304 H       1  UNL1        0.2417
@<TRIPOS>BOND
     1    18    19    1
     2    19    20    1
     3    19    17    1
     4    17    14    1
     5    14    15    2
     6    14    16    2
     7    14     1    1
     8     1     2    1
     9     2     3    1
    10     3     4    1
    11     4     7    1
    12     7     8   ar
    13     8     9   ar
    14     9    10   ar
    15    10    11    1
    16    10    12   ar
    17    12    13   ar
    18     4     5    1
    19     5     6    1
    20    19    21    1
    21    21    22    1
    22    21    23   am
    23    23    24    2
    24     6     1    1
    25    13     7   ar
    26    22    25    1
@<TRIPOS>MOLECULE
*****
 25 26 0 0 0
SMALL
GASTEIGER

@<TRIPOS>ATOM
      1 N          59.1725   93.5956   -0.1612 N.3     1  UNL1       -0.1559
      2 C          58.1155   92.6431   -0.6359 C.3     1  UNL1        0.1168
      3 C          56.8800   93.1671   -1.3059 C.3     1  UNL1        0.1099
      4 N          56.7015   94.6436   -1.5012 N.pl3   1  UNL1       -0.3045
      5 C          57.7585   95.5960   -1.0264 C.3     1  UNL1        0.1099
      6 C          58.9940   95.0721   -0.3564 C.3     1  UNL1        0.1168
      7 C          55.4659   95.1675   -2.1712 C.ar    1  UNL1        0.0481
      8 C          55.4609   95.4099   -3.6514 C.ar    1  UNL1        0.0168
      9 C          54.2254   95.9339   -4.3214 C.ar    1  UNL1        0.0309
     10 C          52.9949   96.2155   -3.5112 C.ar    1  UNL1        0.1402
     11 F          51.7594   96.7395   -4.1812 F       1  UNL1       -0.2042
     12 C          52.9999   95.9732   -2.0309 C.ar    1  UNL1        0.0309
     13 C          54.2355   95.4492   -1.3609 C.ar    1  UNL1        0.0168
     14 S          60.4081   93.0716    0.5089 S.O2    1  UNL1        0.0456
     15 O          60.2455   91.7663   -0.2121 O.2     1  UNL1       -0.1572
     16 O          60.5707   94.3769    1.2298 O.2     1  UNL1       -0.1572
     17 C          61.6436   92.5476    1.1789 C.3     1  UNL1        0.1895
     18 C          63.4676   92.8615    2.2153 C.3     1  UNL1        0.0243
     19 C          62.9878   93.1051    0.8152 C.3     1  UNL1        0.1101
     20 C          62.5079   93.3488   -0.5849 C.3     1  UNL1        0.0243
     21 N          64.3321   93.6626    0.4515 N.am    1  UNL1       -0.1662
     22 O          65.5563   92.8034    0.5660 O.3     1  UNL1       -0.2915
     23 C          64.4521   95.0793   -0.0266 C.2     1  UNL1        0.3267
     24 O          65.7964   95.6368   -0.3902 O.2     1  UNL1       -0.2627
     25 H          65.3047   91.9233    0.8870 H       1  UNL1        0.2417
@<TRIPOS>BOND
     1    18    19    1
     2    19    20    1
     3    19    17    1
     4    17    14    1
     5    14    15    2
     6    14    16    2
     7    14     1    1
     8     1     2    1
     9     2     3    1
    10     3     4    1
    11     4     7    1
    12     7     8   ar
    13     8     9   ar
    14     9    10   ar
    15    10    11    1
    16    10    12   ar
    17    12    13   ar
    18     4     5    1
    19     5     6    1
    20    19    21    1
    21    21    22    1
    22    21    23   am
    23    23    24    2
    24     6     1    1
    25    13     7   ar
    26    22    25    1
@<TRIPOS>MOLECULE
*****
 25 26 0 0 0
SMALL
GASTEIGER

@<TRIPOS>ATOM
      1 N          59.0782   93.4715   -1.1735 N.3     1  UNL1       -0.1559
      2 C          57.7963   92.9085   -0.6354 C.3     1  UNL1        0.1168
      3 C          56.8393   92.2102   -1.5554 C.3     1  UNL1        0.1099
      4 N          57.1641   92.0749   -3.0135 N.pl3   1  UNL1       -0.3045
      5 C          58.4461   92.6380   -3.5516 C.3     1  UNL1        0.1099
      6 C          59.4031   93.3363   -2.6316 C.3     1  UNL1        0.1168
      7 C          56.2071   91.3766   -3.9335 C.ar    1  UNL1        0.0481
      8 C          56.0405   91.8543   -5.3456 C.ar    1  UNL1        0.0168
      9 C          55.0835   91.1560   -6.2656 C.ar    1  UNL1        0.0309
     10 C          54.2930   89.9800   -5.7736 C.ar    1  UNL1        0.1402
     11 F          53.3360   89.2817   -6.6936 F       1  UNL1       -0.2042
     12 C          54.4596   89.5023   -4.3615 C.ar    1  UNL1        0.0309
     13 C          55.4166   90.2006   -3.4415 C.ar    1  UNL1        0.0168
     14 S          60.0353   94.1698   -0.2535 S.O2    1  UNL1        0.0456
     15 O          58.9202   95.0399    0.2462 O.2     1  UNL1       -0.1572
     16 O          61.1504   93.2998   -0.7531 O.2     1  UNL1       -0.1572
     17 C          60.9923   94.8682    0.6665 C.3     1  UNL1        0.1895
     18 C          63.1027   94.6580    0.7088 C.3     1  UNL1        0.0243
     19 C          61.9625   94.0699    1.4860 C.3     1  UNL1        0.1101
     20 C          60.8223   93.4819    2.2631 C.3     1  UNL1        0.0243
     21 N          62.9328   93.2717    2.3054 N.am    1  UNL1       -0.1662
     22 O          64.2914   93.8286    2.6121 O.3     1  UNL1       -0.2915
     23 C          62.5445   91.9166    2.8181 C.2     1  UNL1        0.3267
     24 O          63.5148   91.1183    3.6375 O.2     1  UNL1       -0.2627
     25 H          64.3794   94.7066    2.2093 H       1  UNL1        0.2417
@<TRIPOS>BOND
     1    18    19    1
     2    19    20    1
     3    19    17    1
     4    17    14    1
     5    14    15    2
     6    14    16    2
     7    14     1    1
     8     1     2    1
     9     2     3    1
    10     3     4    1
    11     4     7    1
    12     7     8   ar
    13     8     9   ar
    14     9    10   ar
    15    10    11    1
    16    10    12   ar
    17    12    13   ar
    18     4     5    1
    19     5     6    1
    20    19    21    1
    21    21    22    1
    22    21    23   am
    23    23    24    2
    24     6     1    1
    25    13     7   ar
    26    22    25    1
