@<TRIPOS>MOLECULE
*****
 46 49 0 0 0
SMALL
GASTEIGER

@<TRIPOS>ATOM
      1 C          63.0819   89.5047   11.7386 C.ar    1  UNL1        0.0736
      2 C          63.4996   88.4998   12.7708 C.ar    1  UNL1        0.0847
      3 N          64.4804   88.8846   13.8385 N.ar    1  UNL1       -0.2755
      4 C          65.0436   90.2744   13.8738 C.ar    1  UNL1        0.3341
      5 O          66.0245   90.6592   14.9415 O.2     1  UNL1       -0.2462
      6 N          64.6259   91.2793   12.8416 N.ar    1  UNL1       -0.2470
      7 C          63.6450   90.8945   11.7740 C.ar    1  UNL1        0.2657
      8 O          63.2274   91.8995   10.7417 O.2     1  UNL1       -0.2668
      9 C          60.1393   88.3502    8.5357 C.ar    1  UNL1       -0.0064
     10 C          60.0016   89.6666    9.2415 C.ar    1  UNL1       -0.0029
     11 C          60.9824   90.0514   10.3092 C.ar    1  UNL1       -0.0001
     12 C          62.1010   89.1199   10.6710 C.ar    1  UNL1        0.0060
     13 C          62.2388   87.8035    9.9652 C.ar    1  UNL1       -0.0001
     14 C          61.2579   87.4187    8.8976 C.ar    1  UNL1       -0.0029
     15 C          59.1584   87.9654    7.4681 C.3     1  UNL1        0.0960
     16 N          58.3538   89.0230    6.7724 N.3     1  UNL1       -0.2844
     17 H          57.7057   88.5388    6.1511 H       1  UNL1        0.1241
     18 C          59.0436   90.0694    5.9483 C.3     1  UNL1        0.1800
     19 C          58.2492   91.1826    5.3318 C.2     1  UNL1        0.3333
     20 O          56.7591   91.0622    5.2097 O.2     1  UNL1       -0.2485
     21 O          58.9451   92.4160    4.8375 O.3     1  UNL1       -0.4475
     22 C          60.0460   93.1653    2.6067 C.3     1  UNL1        0.0513
     23 C          60.0524   92.3005    3.8323 C.3     1  UNL1        0.2086
     24 C          64.8981   87.8796   14.8707 C.3     1  UNL1        0.1394
     25 C          63.8593   87.1329   15.6539 C.ar    1  UNL1        0.0319
     26 C          63.1419   87.8096   16.7841 C.ar    1  UNL1        0.1379
     27 F          63.4633   89.2330   17.1312 F       1  UNL1       -0.2044
     28 C          62.1031   87.0628   17.5673 C.ar    1  UNL1        0.0294
     29 C          61.7818   85.6393   17.2202 C.ar    1  UNL1        0.0022
     30 C          62.4992   84.9626   16.0900 C.ar    1  UNL1        0.0037
     31 C          63.5380   85.7093   15.3068 C.ar    1  UNL1        0.0714
     32 C          64.2554   85.0326   14.1766 C.3     1  UNL1        0.4184
     33 F          64.9728   84.3559   13.0464 F       1  UNL1       -0.1659
     34 F          63.1110   85.3500   13.2602 F       1  UNL1       -0.1659
     35 F          65.3997   84.7153   15.0930 F       1  UNL1       -0.1659
     36 C          65.1891   92.6692   12.8769 C.3     1  UNL1        0.1334
     37 C          66.6387   92.8991   12.5675 C.3     1  UNL1        0.0968
     38 N          67.6663   92.7740   13.6530 N.3     1  UNL1       -0.3172
     39 H          68.5920   92.9622   13.2682 H       1  UNL1        0.1192
     40 H          67.6430   91.8289   14.0360 H       1  UNL1        0.1192
     41 C          67.0607   93.2543   11.1726 C.ar    1  UNL1       -0.0063
     42 C          66.6489   94.5674   10.5758 C.ar    1  UNL1       -0.0029
     43 C          67.0709   94.9226    9.1809 C.ar    1  UNL1       -0.0003
     44 C          67.9046   93.9646    8.3828 C.ar    1  UNL1       -0.0000
     45 C          68.3164   92.6514    8.9795 C.ar    1  UNL1       -0.0003
     46 C          67.8944   92.2963   10.3744 C.ar    1  UNL1       -0.0029
@<TRIPOS>BOND
     1    22    23    1
     2    23    21    1
     3    21    19    1
     4    19    20    2
     5    19    18    1
     6    18    16    1
     7    16    15    1
     8    15     9    1
     9     9    10   ar
    10    10    11   ar
    11    11    12   ar
    12    12     1    1
    13     1     2   ar
    14     2     3   ar
    15     3    24    1
    16    24    25    1
    17    25    26   ar
    18    26    27    1
    19    26    28   ar
    20    28    29   ar
    21    29    30   ar
    22    30    31   ar
    23    31    32    1
    24    32    33    1
    25    32    34    1
    26    32    35    1
    27     3     4   ar
    28     4     5    2
    29     4     6   ar
    30     6    36    1
    31    36    37    1
    32    37    38    1
    33    37    41    1
    34    41    42   ar
    35    42    43   ar
    36    43    44   ar
    37    44    45   ar
    38    45    46   ar
    39     6     7   ar
    40     7     8    2
    41    12    13   ar
    42    13    14   ar
    43    14     9   ar
    44     7     1   ar
    45    31    25   ar
    46    46    41   ar
    47    16    17    1
    48    38    39    1
    49    38    40    1
@<TRIPOS>MOLECULE
*****
 46 49 0 0 0
SMALL
GASTEIGER

@<TRIPOS>ATOM
      1 C          62.3726   87.7947   11.4868 C.ar    1  UNL1        0.0736
      2 C          62.8868   86.4433   11.8859 C.ar    1  UNL1        0.0847
      3 N          63.7867   86.3052   13.0779 N.ar    1  UNL1       -0.2755
      4 C          64.1726   87.5185   13.8709 C.ar    1  UNL1        0.3341
      5 O          65.0726   87.3804   15.0630 O.2     1  UNL1       -0.2462
      6 N          63.6585   88.8699   13.4719 N.ar    1  UNL1       -0.2470
      7 C          62.7585   89.0080   12.2798 C.ar    1  UNL1        0.2657
      8 O          62.2444   90.3595   11.8808 O.2     1  UNL1       -0.2668
      9 C          59.6727   88.2089    7.9107 C.ar    1  UNL1       -0.0064
     10 C          60.0919   89.4270    8.6791 C.ar    1  UNL1       -0.0029
     11 C          60.9919   89.2890    9.8711 C.ar    1  UNL1       -0.0001
     12 C          61.4727   87.9328   10.2948 C.ar    1  UNL1        0.0060
     13 C          61.0535   86.7147    9.5264 C.ar    1  UNL1       -0.0001
     14 C          60.1535   86.8527    8.3344 C.ar    1  UNL1       -0.0029
     15 C          58.7727   88.3470    6.7186 C.3     1  UNL1        0.0960
     16 N          58.2432   89.6958    6.3309 N.3     1  UNL1       -0.2844
     17 H          57.3859   89.5347    5.8022 H       1  UNL1        0.1241
     18 C          59.0883   90.6263    5.5124 C.3     1  UNL1        0.1800
     19 C          58.4827   91.8643    4.9202 C.2     1  UNL1        0.3333
     20 O          56.9954   92.0574    4.9448 O.2     1  UNL1       -0.2485
     21 O          59.3645   92.9093    4.3033 O.3     1  UNL1       -0.4475
     22 C          61.1553   92.7315    2.4294 C.3     1  UNL1        0.0513
     23 C          59.7181   92.8283    2.8478 C.3     1  UNL1        0.2086
     24 C          64.3009   84.9537   13.4770 C.3     1  UNL1        0.1394
     25 C          63.3619   83.7864   13.5526 C.ar    1  UNL1        0.0319
     26 C          62.5532   83.5537   14.7943 C.ar    1  UNL1        0.1379
     27 F          62.6834   84.4882   15.9603 F       1  UNL1       -0.2044
     28 C          61.6142   82.3863   14.8699 C.ar    1  UNL1        0.0294
     29 C          61.4840   81.4518   13.7039 C.ar    1  UNL1        0.0022
     30 C          62.2927   81.6845   12.4622 C.ar    1  UNL1        0.0037
     31 C          63.2317   82.8518   12.3866 C.ar    1  UNL1        0.0714
     32 C          64.0404   83.0845   11.1449 C.3     1  UNL1        0.4184
     33 F          64.8491   83.3173    9.9032 F       1  UNL1       -0.1659
     34 F          62.9159   83.8890   10.5633 F       1  UNL1       -0.1659
     35 F          65.1649   82.2800   11.7265 F       1  UNL1       -0.1659
     36 C          64.0443   90.0834   14.2649 C.3     1  UNL1        0.1334
     37 C          64.8948   91.1489   13.6394 C.3     1  UNL1        0.0968
     38 N          64.5563   91.6745   12.2759 N.3     1  UNL1       -0.3172
     39 H          65.2346   92.3878   12.0084 H       1  UNL1        0.1192
     40 H          63.6217   92.0827   12.2912 H       1  UNL1        0.1192
     41 C          66.0840   91.6888   14.3774 C.ar    1  UNL1       -0.0063
     42 C          65.9112   92.2888   15.7412 C.ar    1  UNL1       -0.0029
     43 C          67.1002   92.8287   16.4792 C.ar    1  UNL1       -0.0003
     44 C          68.4620   92.7686   15.8534 C.ar    1  UNL1       -0.0000
     45 C          68.6348   92.1686   14.4895 C.ar    1  UNL1       -0.0003
     46 C          67.4458   91.6287   13.7515 C.ar    1  UNL1       -0.0029
@<TRIPOS>BOND
     1    22    23    1
     2    23    21    1
     3    21    19    1
     4    19    20    2
     5    19    18    1
     6    18    16    1
     7    16    15    1
     8    15     9    1
     9     9    10   ar
    10    10    11   ar
    11    11    12   ar
    12    12     1    1
    13     1     2   ar
    14     2     3   ar
    15     3    24    1
    16    24    25    1
    17    25    26   ar
    18    26    27    1
    19    26    28   ar
    20    28    29   ar
    21    29    30   ar
    22    30    31   ar
    23    31    32    1
    24    32    33    1
    25    32    34    1
    26    32    35    1
    27     3     4   ar
    28     4     5    2
    29     4     6   ar
    30     6    36    1
    31    36    37    1
    32    37    38    1
    33    37    41    1
    34    41    42   ar
    35    42    43   ar
    36    43    44   ar
    37    44    45   ar
    38    45    46   ar
    39     6     7   ar
    40     7     8    2
    41    12    13   ar
    42    13    14   ar
    43    14     9   ar
    44     7     1   ar
    45    31    25   ar
    46    46    41   ar
    47    16    17    1
    48    38    39    1
    49    38    40    1
@<TRIPOS>MOLECULE
*****
 46 49 0 0 0
SMALL
GASTEIGER

@<TRIPOS>ATOM
      1 C          62.6923   87.2775   11.8811 C.ar    1  UNL1        0.0736
      2 C          63.1941   85.8694   12.0045 C.ar    1  UNL1        0.0847
      3 N          64.0852   85.4883   13.1494 N.ar    1  UNL1       -0.2755
      4 C          64.4746   86.5154   14.1708 C.ar    1  UNL1        0.3341
      5 O          65.3657   86.1343   15.3157 O.2     1  UNL1       -0.2462
      6 N          63.9728   87.9235   14.0474 N.ar    1  UNL1       -0.2470
      7 C          63.0817   88.3046   12.9026 C.ar    1  UNL1        0.2657
      8 O          62.5800   89.7129   12.7792 O.2     1  UNL1       -0.2668
      9 C          60.0190   88.4208    8.4466 C.ar    1  UNL1       -0.0064
     10 C          60.9526   89.4339    9.0398 C.ar    1  UNL1       -0.0029
     11 C          61.8437   89.0528   10.1846 C.ar    1  UNL1       -0.0001
     12 C          61.8012   87.6586   10.7363 C.ar    1  UNL1        0.0060
     13 C          60.8676   86.6455   10.1430 C.ar    1  UNL1       -0.0001
     14 C          59.9765   87.0266    8.9982 C.ar    1  UNL1       -0.0029
     15 C          59.1279   88.8019    7.3017 C.3     1  UNL1        0.0960
     16 N          59.2803   90.1427    6.6467 N.3     1  UNL1       -0.2844
     17 H          58.8863   90.8304    7.2887 H       1  UNL1        0.1241
     18 C          58.6592   90.3970    5.3052 C.3     1  UNL1        0.1800
     19 C          58.2022   91.7783    4.9401 C.2     1  UNL1        0.3333
     20 O          56.7477   92.1344    5.0267 O.2     1  UNL1       -0.2485
     21 O          59.1998   92.8033    4.4883 O.3     1  UNL1       -0.4475
     22 C          60.3217   93.8860    2.4101 C.3     1  UNL1        0.0513
     23 C          59.8645   92.6645    3.1508 C.3     1  UNL1        0.2086
     24 C          64.5870   84.0800   13.2727 C.3     1  UNL1        0.1394
     25 C          63.6160   82.9369   13.2921 C.ar    1  UNL1        0.0319
     26 C          63.6310   81.9212   12.1884 C.ar    1  UNL1        0.1379
     27 F          64.6171   82.0487   11.0653 F       1  UNL1       -0.2044
     28 C          62.6600   80.7781   12.2079 C.ar    1  UNL1        0.0294
     29 C          61.6740   80.6506   13.3310 C.ar    1  UNL1        0.0022
     30 C          61.6589   81.6663   14.4347 C.ar    1  UNL1        0.0037
     31 C          62.6299   82.8094   14.4153 C.ar    1  UNL1        0.0714
     32 C          62.6148   83.8251   15.5190 C.3     1  UNL1        0.4184
     33 F          62.5998   84.8407   16.6227 F       1  UNL1       -0.1659
     34 F          61.3192   84.3723   14.9978 F       1  UNL1       -0.1659
     35 F          63.9105   83.2778   16.0403 F       1  UNL1       -0.1659
     36 C          64.3622   88.9507   15.0689 C.3     1  UNL1        0.1334
     37 C          64.2438   90.4110   14.7471 C.3     1  UNL1        0.0968
     38 N          63.0468   91.1866   15.2110 N.3     1  UNL1       -0.3172
     39 H          63.1309   92.1564   14.9062 H       1  UNL1        0.1192
     40 H          62.9940   91.1537   16.2291 H       1  UNL1        0.1192
     41 C          65.3226   91.0956   13.9611 C.ar    1  UNL1       -0.0063
     42 C          66.7189   91.1629   14.5050 C.ar    1  UNL1       -0.0029
     43 C          67.7977   91.8475   13.7191 C.ar    1  UNL1       -0.0003
     44 C          67.4801   92.4647   12.3894 C.ar    1  UNL1       -0.0000
     45 C          66.0838   92.3974   11.8456 C.ar    1  UNL1       -0.0003
     46 C          65.0051   91.7128   12.6314 C.ar    1  UNL1       -0.0029
@<TRIPOS>BOND
     1    22    23    1
     2    23    21    1
     3    21    19    1
     4    19    20    2
     5    19    18    1
     6    18    16    1
     7    16    15    1
     8    15     9    1
     9     9    10   ar
    10    10    11   ar
    11    11    12   ar
    12    12     1    1
    13     1     2   ar
    14     2     3   ar
    15     3    24    1
    16    24    25    1
    17    25    26   ar
    18    26    27    1
    19    26    28   ar
    20    28    29   ar
    21    29    30   ar
    22    30    31   ar
    23    31    32    1
    24    32    33    1
    25    32    34    1
    26    32    35    1
    27     3     4   ar
    28     4     5    2
    29     4     6   ar
    30     6    36    1
    31    36    37    1
    32    37    38    1
    33    37    41    1
    34    41    42   ar
    35    42    43   ar
    36    43    44   ar
    37    44    45   ar
    38    45    46   ar
    39     6     7   ar
    40     7     8    2
    41    12    13   ar
    42    13    14   ar
    43    14     9   ar
    44     7     1   ar
    45    31    25   ar
    46    46    41   ar
    47    16    17    1
    48    38    39    1
    49    38    40    1
@<TRIPOS>MOLECULE
*****
 46 49 0 0 0
SMALL
GASTEIGER

@<TRIPOS>ATOM
      1 C          63.0058   89.3365   11.7395 C.ar    1  UNL1        0.0736
      2 C          63.3462   88.3097   12.7786 C.ar    1  UNL1        0.0847
      3 N          64.3066   88.6473   13.8802 N.ar    1  UNL1       -0.2755
      4 C          64.9267   90.0117   13.9428 C.ar    1  UNL1        0.3341
      5 O          65.8871   90.3493   15.0445 O.2     1  UNL1       -0.2462
      6 N          64.5863   91.0385   12.9037 N.ar    1  UNL1       -0.2470
      7 C          63.6259   90.7009   11.8021 C.ar    1  UNL1        0.2657
      8 O          63.2855   91.7278   10.7629 O.2     1  UNL1       -0.2668
      9 C          60.1246   88.3238    8.4345 C.ar    1  UNL1       -0.0064
     10 C          59.9968   89.6258    9.1681 C.ar    1  UNL1       -0.0029
     11 C          60.9572   89.9634   10.2698 C.ar    1  UNL1       -0.0001
     12 C          62.0454   88.9990   10.6378 C.ar    1  UNL1        0.0060
     13 C          62.1732   87.6969    9.9042 C.ar    1  UNL1       -0.0001
     14 C          61.2128   87.3593    8.8026 C.ar    1  UNL1       -0.0029
     15 C          59.1642   87.9862    7.3329 C.3     1  UNL1        0.0960
     16 N          58.2421   89.0389    6.7930 N.3     1  UNL1       -0.2844
     17 H          57.5316   88.5546    6.2442 H       1  UNL1        0.1241
     18 C          58.7834   90.1378    5.9273 C.3     1  UNL1        0.1800
     19 C          57.8460   91.1152    5.2823 C.2     1  UNL1        0.3333
     20 O          56.3635   90.9080    5.3787 O.2     1  UNL1       -0.2485
     21 O          58.3911   92.2999    4.5411 O.3     1  UNL1       -0.4475
     22 C          60.2166   93.0167    2.8371 C.3     1  UNL1        0.0513
     23 C          59.8261   92.3161    4.1046 C.3     1  UNL1        0.2086
     24 C          64.6470   87.6204   14.9194 C.3     1  UNL1        0.1394
     25 C          63.7679   86.4190   15.1028 C.ar    1  UNL1        0.0319
     26 C          63.7089   85.3634   14.0388 C.ar    1  UNL1        0.1379
     27 F          64.5290   85.5091   12.7914 F       1  UNL1       -0.2044
     28 C          62.8297   84.1619   14.2222 C.ar    1  UNL1        0.0294
     29 C          62.0095   84.0162   15.4696 C.ar    1  UNL1        0.0022
     30 C          62.0685   85.0718   16.5336 C.ar    1  UNL1        0.0037
     31 C          62.9476   86.2732   16.3502 C.ar    1  UNL1        0.0714
     32 C          63.0066   87.3289   17.4142 C.3     1  UNL1        0.4184
     33 F          63.0656   88.3846   18.4782 F       1  UNL1       -0.1659
     34 F          63.4586   86.3011   18.4089 F       1  UNL1       -0.1659
     35 F          62.5546   88.3567   16.4196 F       1  UNL1       -0.1659
     36 C          65.2063   92.4030   12.9662 C.3     1  UNL1        0.1334
     37 C          66.6442   92.5917   12.5830 C.3     1  UNL1        0.0968
     38 N          67.7317   92.2371   13.5533 N.3     1  UNL1       -0.3172
     39 H          68.6401   92.4277   13.1304 H       1  UNL1        0.1192
     40 H          67.6675   91.2468   13.7891 H       1  UNL1        0.1192
     41 C          66.9945   93.1350   11.2294 C.ar    1  UNL1       -0.0063
     42 C          67.9000   92.3576   10.3207 C.ar    1  UNL1       -0.0029
     43 C          68.2504   92.9008    8.9671 C.ar    1  UNL1       -0.0003
     44 C          67.6953   94.2214    8.5224 C.ar    1  UNL1       -0.0000
     45 C          66.7899   94.9988    9.4311 C.ar    1  UNL1       -0.0003
     46 C          66.4395   94.4556   10.7847 C.ar    1  UNL1       -0.0029
@<TRIPOS>BOND
     1    22    23    1
     2    23    21    1
     3    21    19    1
     4    19    20    2
     5    19    18    1
     6    18    16    1
     7    16    15    1
     8    15     9    1
     9     9    10   ar
    10    10    11   ar
    11    11    12   ar
    12    12     1    1
    13     1     2   ar
    14     2     3   ar
    15     3    24    1
    16    24    25    1
    17    25    26   ar
    18    26    27    1
    19    26    28   ar
    20    28    29   ar
    21    29    30   ar
    22    30    31   ar
    23    31    32    1
    24    32    33    1
    25    32    34    1
    26    32    35    1
    27     3     4   ar
    28     4     5    2
    29     4     6   ar
    30     6    36    1
    31    36    37    1
    32    37    38    1
    33    37    41    1
    34    41    42   ar
    35    42    43   ar
    36    43    44   ar
    37    44    45   ar
    38    45    46   ar
    39     6     7   ar
    40     7     8    2
    41    12    13   ar
    42    13    14   ar
    43    14     9   ar
    44     7     1   ar
    45    31    25   ar
    46    46    41   ar
    47    16    17    1
    48    38    39    1
    49    38    40    1
@<TRIPOS>MOLECULE
*****
 46 49 0 0 0
SMALL
GASTEIGER

@<TRIPOS>ATOM
      1 C          63.6479   89.1696   12.4638 C.ar    1  UNL1        0.0736
      2 C          62.6382   88.7908   11.4212 C.ar    1  UNL1        0.0847
      3 N          61.9838   87.4418   11.4659 N.ar    1  UNL1       -0.2755
      4 C          62.3392   86.4715   12.5532 C.ar    1  UNL1        0.3341
      5 O          61.6849   85.1225   12.5979 O.2     1  UNL1       -0.2462
      6 N          63.3489   86.8503   13.5958 N.ar    1  UNL1       -0.2470
      7 C          64.0032   88.1993   13.5511 C.ar    1  UNL1        0.2657
      8 O          65.0130   88.5780   14.5937 O.2     1  UNL1       -0.2668
      9 C          65.6109   93.2166   12.3297 C.ar    1  UNL1       -0.0064
     10 C          64.8777   92.6985   11.1281 C.ar    1  UNL1       -0.0029
     11 C          64.2234   91.3495   11.1728 C.ar    1  UNL1       -0.0001
     12 C          64.3022   90.5186   12.4191 C.ar    1  UNL1        0.0060
     13 C          65.0354   91.0367   13.6207 C.ar    1  UNL1       -0.0001
     14 C          65.6898   92.3857   13.5760 C.ar    1  UNL1       -0.0029
     15 C          66.2653   94.5656   12.2850 C.3     1  UNL1        0.0960
     16 N          65.7566   95.6150   11.3416 N.3     1  UNL1       -0.2844
     17 H          65.0290   95.1760   10.7774 H       1  UNL1        0.1241
     18 C          66.6993   96.2857   10.3869 C.3     1  UNL1        0.1800
     19 C          67.2770   95.5146    9.2372 C.2     1  UNL1        0.3333
     20 O          66.7622   95.7427    7.8469 O.2     1  UNL1       -0.2485
     21 O          68.3694   94.5153    9.4779 O.3     1  UNL1       -0.4475
     22 C          68.3046   91.9814   10.0483 C.3     1  UNL1        0.0513
     23 C          68.1913   93.0903    9.0446 C.3     1  UNL1        0.2086
     24 C          60.9741   87.0631   10.4233 C.3     1  UNL1        0.1394
     25 C          61.4015   86.2897    9.2112 C.ar    1  UNL1        0.0319
     26 C          62.5859   85.3723    9.2861 C.ar    1  UNL1        0.1379
     27 F          63.3429   85.2283   10.5730 F       1  UNL1       -0.2044
     28 C          63.0134   84.5989    8.0740 C.ar    1  UNL1        0.0294
     29 C          62.2564   84.7429    6.7870 C.ar    1  UNL1        0.0022
     30 C          61.0720   85.6603    6.7121 C.ar    1  UNL1        0.0037
     31 C          60.6446   86.4337    7.9242 C.ar    1  UNL1        0.0714
     32 C          59.4602   87.3511    7.8493 C.3     1  UNL1        0.4184
     33 F          58.2758   88.2685    7.7744 F       1  UNL1       -0.1659
     34 F          60.3792   88.5366    7.8378 F       1  UNL1       -0.1659
     35 F          58.5412   86.1656    7.8608 F       1  UNL1       -0.1659
     36 C          63.7043   85.8800   14.6832 C.3     1  UNL1        0.1334
     37 C          64.5091   84.6555   14.3622 C.3     1  UNL1        0.0968
     38 N          66.0013   84.6779   14.5133 N.3     1  UNL1       -0.3172
     39 H          66.3829   83.7682   14.2540 H       1  UNL1        0.1192
     40 H          66.2417   84.8835   15.4830 H       1  UNL1        0.1192
     41 C          63.8216   83.4087   13.8899 C.ar    1  UNL1       -0.0063
     42 C          64.2133   82.7854   12.5830 C.ar    1  UNL1       -0.0029
     43 C          63.5260   81.5386   12.1108 C.ar    1  UNL1       -0.0003
     44 C          62.4469   80.9152   12.9455 C.ar    1  UNL1       -0.0000
     45 C          62.0552   81.5385   14.2524 C.ar    1  UNL1       -0.0003
     46 C          62.7425   82.7852   14.7247 C.ar    1  UNL1       -0.0029
@<TRIPOS>BOND
     1    22    23    1
     2    23    21    1
     3    21    19    1
     4    19    20    2
     5    19    18    1
     6    18    16    1
     7    16    15    1
     8    15     9    1
     9     9    10   ar
    10    10    11   ar
    11    11    12   ar
    12    12     1    1
    13     1     2   ar
    14     2     3   ar
    15     3    24    1
    16    24    25    1
    17    25    26   ar
    18    26    27    1
    19    26    28   ar
    20    28    29   ar
    21    29    30   ar
    22    30    31   ar
    23    31    32    1
    24    32    33    1
    25    32    34    1
    26    32    35    1
    27     3     4   ar
    28     4     5    2
    29     4     6   ar
    30     6    36    1
    31    36    37    1
    32    37    38    1
    33    37    41    1
    34    41    42   ar
    35    42    43   ar
    36    43    44   ar
    37    44    45   ar
    38    45    46   ar
    39     6     7   ar
    40     7     8    2
    41    12    13   ar
    42    13    14   ar
    43    14     9   ar
    44     7     1   ar
    45    31    25   ar
    46    46    41   ar
    47    16    17    1
    48    38    39    1
    49    38    40    1
@<TRIPOS>MOLECULE
*****
 46 49 0 0 0
SMALL
GASTEIGER

@<TRIPOS>ATOM
      1 C          63.5561   89.4844   12.2116 C.ar    1  UNL1        0.0736
      2 C          64.1287   88.3295   12.9785 C.ar    1  UNL1        0.0847
      3 N          63.4314   87.0014   12.9659 N.ar    1  UNL1       -0.2755
      4 C          62.1616   86.8284   12.1865 C.ar    1  UNL1        0.3341
      5 O          61.4644   85.5003   12.1740 O.2     1  UNL1       -0.2462
      6 N          61.5891   87.9833   11.4196 N.ar    1  UNL1       -0.2470
      7 C          62.2863   89.3113   11.4321 C.ar    1  UNL1        0.2657
      8 O          61.7137   90.4663   10.6652 O.2     1  UNL1       -0.2668
      9 C          65.6479   93.4685   12.2491 C.ar    1  UNL1       -0.0064
     10 C          65.5960   92.6369   13.4964 C.ar    1  UNL1       -0.0029
     11 C          64.8987   91.3089   13.4839 C.ar    1  UNL1       -0.0001
     12 C          64.2534   90.8124   12.2241 C.ar    1  UNL1        0.0060
     13 C          64.3054   91.6441   10.9768 C.ar    1  UNL1       -0.0001
     14 C          65.0026   92.9721   10.9894 C.ar    1  UNL1       -0.0029
     15 C          66.3452   94.7965   12.2617 C.3     1  UNL1        0.0960
     16 N          65.8771   95.8980   11.3574 N.3     1  UNL1       -0.2844
     17 H          65.0402   95.5557   10.8853 H       1  UNL1        0.1241
     18 C          66.7878   96.4315   10.2917 C.3     1  UNL1        0.1800
     19 C          67.2926   95.5211    9.2116 C.2     1  UNL1        0.3333
     20 O          66.7322   95.6209    7.8239 O.2     1  UNL1       -0.2485
     21 O          68.3578   94.5108    9.5195 O.3     1  UNL1       -0.4475
     22 C          68.3103   91.9470    9.9375 C.3     1  UNL1        0.0513
     23 C          68.2381   93.1110    8.9940 C.3     1  UNL1        0.2086
     24 C          64.0041   85.8464   13.7329 C.3     1  UNL1        0.1394
     25 C          63.3984   84.4810   13.5957 C.ar    1  UNL1        0.0319
     26 C          63.6115   83.6887   12.3400 C.ar    1  UNL1        0.1379
     27 F          64.4302   84.2618   11.2214 F       1  UNL1       -0.2044
     28 C          63.0059   82.3233   12.2029 C.ar    1  UNL1        0.0294
     29 C          62.1871   81.7502   13.3214 C.ar    1  UNL1        0.0022
     30 C          61.9741   82.5425   14.5772 C.ar    1  UNL1        0.0037
     31 C          62.5797   83.9078   14.7143 C.ar    1  UNL1        0.0714
     32 C          62.3666   84.7001   15.9701 C.3     1  UNL1        0.4184
     33 F          62.1535   85.4924   17.2258 F       1  UNL1       -0.1659
     34 F          63.7908   84.4504   16.3693 F       1  UNL1       -0.1659
     35 F          60.9424   84.9499   15.5708 F       1  UNL1       -0.1659
     36 C          60.3192   87.8103   10.6401 C.3     1  UNL1        0.1334
     37 C          60.3551   87.7995    9.1406 C.3     1  UNL1        0.0968
     38 N          59.7103   88.9110    8.3669 N.3     1  UNL1       -0.3172
     39 H          59.8295   88.7435    7.3678 H       1  UNL1        0.1192
     40 H          60.1474   89.7979    8.6174 H       1  UNL1        0.1192
     41 C          61.0360   86.6771    8.4148 C.ar    1  UNL1       -0.0063
     42 C          60.3091   85.9324    7.3345 C.ar    1  UNL1       -0.0029
     43 C          60.9898   84.8101    6.6087 C.ar    1  UNL1       -0.0003
     44 C          62.3975   84.4324    6.9631 C.ar    1  UNL1       -0.0000
     45 C          63.1245   85.1771    8.0434 C.ar    1  UNL1       -0.0003
     46 C          62.4437   86.2994    8.7692 C.ar    1  UNL1       -0.0029
@<TRIPOS>BOND
     1    22    23    1
     2    23    21    1
     3    21    19    1
     4    19    20    2
     5    19    18    1
     6    18    16    1
     7    16    15    1
     8    15     9    1
     9     9    10   ar
    10    10    11   ar
    11    11    12   ar
    12    12     1    1
    13     1     2   ar
    14     2     3   ar
    15     3    24    1
    16    24    25    1
    17    25    26   ar
    18    26    27    1
    19    26    28   ar
    20    28    29   ar
    21    29    30   ar
    22    30    31   ar
    23    31    32    1
    24    32    33    1
    25    32    34    1
    26    32    35    1
    27     3     4   ar
    28     4     5    2
    29     4     6   ar
    30     6    36    1
    31    36    37    1
    32    37    38    1
    33    37    41    1
    34    41    42   ar
    35    42    43   ar
    36    43    44   ar
    37    44    45   ar
    38    45    46   ar
    39     6     7   ar
    40     7     8    2
    41    12    13   ar
    42    13    14   ar
    43    14     9   ar
    44     7     1   ar
    45    31    25   ar
    46    46    41   ar
    47    16    17    1
    48    38    39    1
    49    38    40    1
@<TRIPOS>MOLECULE
*****
 46 49 0 0 0
SMALL
GASTEIGER

@<TRIPOS>ATOM
      1 C          62.5177   88.0709   11.6553 C.ar    1  UNL1        0.0736
      2 C          62.9882   89.3555   12.2704 C.ar    1  UNL1        0.0847
      3 N          63.8622   89.3275   13.4892 N.ar    1  UNL1       -0.2755
      4 C          64.2655   88.0150   14.0929 C.ar    1  UNL1        0.3341
      5 O          65.1395   87.9871   15.3117 O.2     1  UNL1       -0.2462
      6 N          63.7950   86.7304   13.4778 N.ar    1  UNL1       -0.2470
      7 C          62.9211   86.7584   12.2590 C.ar    1  UNL1        0.2657
      8 O          62.4505   85.4737   11.6439 O.2     1  UNL1       -0.2668
      9 C          59.8959   88.1547    7.9989 C.ar    1  UNL1       -0.0064
     10 C          60.1212   89.4096    8.7892 C.ar    1  UNL1       -0.0029
     11 C          60.9951   89.3816   10.0080 C.ar    1  UNL1       -0.0001
     12 C          61.6438   88.0988   10.4365 C.ar    1  UNL1        0.0060
     13 C          61.4185   86.8440    9.6462 C.ar    1  UNL1       -0.0001
     14 C          60.5445   86.8719    8.4274 C.ar    1  UNL1       -0.0029
     15 C          59.0220   88.1827    6.7801 C.3     1  UNL1        0.0960
     16 N          58.3217   89.4499    6.3882 N.3     1  UNL1       -0.2844
     17 H          57.4864   89.1768    5.8706 H       1  UNL1        0.1241
     18 C          59.0335   90.4727    5.5532 C.3     1  UNL1        0.1800
     19 C          58.2869   91.6628    5.0273 C.2     1  UNL1        0.3333
     20 O          56.7873   91.6809    5.0576 O.2     1  UNL1       -0.2485
     21 O          59.0400   92.8347    4.4710 O.3     1  UNL1       -0.4475
     22 C          59.7256   93.1128    1.9805 C.3     1  UNL1        0.0513
     23 C          60.0349   92.6313    3.3670 C.3     1  UNL1        0.2086
     24 C          64.3327   90.6122   14.1043 C.3     1  UNL1        0.1394
     25 C          65.0411   91.6316   13.2623 C.ar    1  UNL1        0.0319
     26 C          64.5481   91.9349   11.8785 C.ar    1  UNL1        0.1379
     27 F          63.3466   91.2188   11.3367 F       1  UNL1       -0.2044
     28 C          65.2565   92.9543   11.0365 C.ar    1  UNL1        0.0294
     29 C          66.4580   93.6704   11.5784 C.ar    1  UNL1        0.0022
     30 C          66.9510   93.3672   12.9622 C.ar    1  UNL1        0.0037
     31 C          66.2426   92.3478   13.8041 C.ar    1  UNL1        0.0714
     32 C          66.7357   92.0445   15.1879 C.3     1  UNL1        0.4184
     33 F          67.2287   91.7412   16.5718 F       1  UNL1       -0.1659
     34 F          65.7494   93.0228   15.7538 F       1  UNL1       -0.1659
     35 F          67.7220   91.0662   14.6221 F       1  UNL1       -0.1659
     36 C          64.1984   85.4178   14.0815 C.3     1  UNL1        0.1334
     37 C          63.1686   84.5449   14.7353 C.3     1  UNL1        0.0968
     38 N          62.3963   85.0523   15.9169 N.3     1  UNL1       -0.3172
     39 H          61.7447   84.3334   16.2314 H       1  UNL1        0.1192
     40 H          61.8769   85.8886   15.6499 H       1  UNL1        0.1192
     41 C          62.9110   83.1646   14.2076 C.ar    1  UNL1       -0.0063
     42 C          63.9021   82.5167   13.2869 C.ar    1  UNL1       -0.0029
     43 C          63.6446   81.1364   12.7591 C.ar    1  UNL1       -0.0003
     44 C          62.3959   80.4041   13.1521 C.ar    1  UNL1       -0.0000
     45 C          61.4048   81.0521   14.0729 C.ar    1  UNL1       -0.0003
     46 C          61.6623   82.4323   14.6006 C.ar    1  UNL1       -0.0029
@<TRIPOS>BOND
     1    22    23    1
     2    23    21    1
     3    21    19    1
     4    19    20    2
     5    19    18    1
     6    18    16    1
     7    16    15    1
     8    15     9    1
     9     9    10   ar
    10    10    11   ar
    11    11    12   ar
    12    12     1    1
    13     1     2   ar
    14     2     3   ar
    15     3    24    1
    16    24    25    1
    17    25    26   ar
    18    26    27    1
    19    26    28   ar
    20    28    29   ar
    21    29    30   ar
    22    30    31   ar
    23    31    32    1
    24    32    33    1
    25    32    34    1
    26    32    35    1
    27     3     4   ar
    28     4     5    2
    29     4     6   ar
    30     6    36    1
    31    36    37    1
    32    37    38    1
    33    37    41    1
    34    41    42   ar
    35    42    43   ar
    36    43    44   ar
    37    44    45   ar
    38    45    46   ar
    39     6     7   ar
    40     7     8    2
    41    12    13   ar
    42    13    14   ar
    43    14     9   ar
    44     7     1   ar
    45    31    25   ar
    46    46    41   ar
    47    16    17    1
    48    38    39    1
    49    38    40    1
@<TRIPOS>MOLECULE
*****
 46 49 0 0 0
SMALL
GASTEIGER

@<TRIPOS>ATOM
      1 C          63.2940   87.9692   13.3368 C.ar    1  UNL1        0.0736
      2 C          64.0000   86.6535   13.4796 C.ar    1  UNL1        0.0847
      3 N          63.5455   85.4679   12.6811 N.ar    1  UNL1       -0.2755
      4 C          62.3850   85.5979   11.7397 C.ar    1  UNL1        0.3341
      5 O          61.9306   84.4122   10.9412 O.2     1  UNL1       -0.2462
      6 N          61.6790   86.9136   11.5969 N.ar    1  UNL1       -0.2470
      7 C          62.1335   88.0992   12.3954 C.ar    1  UNL1        0.2657
      8 O          61.4274   89.4150   12.2525 O.2     1  UNL1       -0.2668
      9 C          64.6574   91.5262   15.7324 C.ar    1  UNL1       -0.0064
     10 C          63.9002   90.4173   16.4009 C.ar    1  UNL1       -0.0029
     11 C          63.4458   89.2317   15.6024 C.ar    1  UNL1       -0.0001
     12 C          63.7485   89.1549   14.1353 C.ar    1  UNL1        0.0060
     13 C          64.5056   90.2637   13.4667 C.ar    1  UNL1       -0.0001
     14 C          64.9601   91.4494   14.2653 C.ar    1  UNL1       -0.0029
     15 C          65.1119   92.7118   16.5309 C.3     1  UNL1        0.0960
     16 N          66.5405   93.1630   16.4569 N.3     1  UNL1       -0.2844
     17 H          66.5457   94.0399   15.9360 H       1  UNL1        0.1241
     18 C          67.5746   92.2784   15.8259 C.3     1  UNL1        0.1800
     19 C          68.2660   92.7125   14.5674 C.2     1  UNL1        0.3333
     20 O          69.7644   92.7487   14.5091 O.2     1  UNL1       -0.2485
     21 O          67.4589   93.1104   13.3673 O.3     1  UNL1       -0.4475
     22 C          66.7856   92.7258   10.8877 C.3     1  UNL1        0.0513
     23 C          67.4861   92.2623   12.1304 C.3     1  UNL1        0.2086
     24 C          64.2517   84.1521   12.8240 C.3     1  UNL1        0.1394
     25 C          63.4606   82.8957   13.0375 C.ar    1  UNL1        0.0319
     26 C          63.4650   81.8199   11.9922 C.ar    1  UNL1        0.1379
     27 F          64.2604   82.0005   10.7334 F       1  UNL1       -0.2044
     28 C          62.6739   80.5635   12.2058 C.ar    1  UNL1        0.0294
     29 C          61.8784   80.3829   13.4646 C.ar    1  UNL1        0.0022
     30 C          61.8740   81.4587   14.5099 C.ar    1  UNL1        0.0037
     31 C          62.6651   82.7151   14.2963 C.ar    1  UNL1        0.0714
     32 C          62.6607   83.7909   15.3416 C.3     1  UNL1        0.4184
     33 F          62.6563   84.8667   16.3869 F       1  UNL1       -0.1659
     34 F          63.9874   83.3060   15.8462 F       1  UNL1       -0.1659
     35 F          61.3340   84.2758   14.8370 F       1  UNL1       -0.1659
     36 C          60.5184   87.0436   10.6554 C.3     1  UNL1        0.1334
     37 C          60.7553   87.3982    9.2173 C.3     1  UNL1        0.0968
     38 N          60.5099   88.7989    8.7399 N.3     1  UNL1       -0.3172
     39 H          60.7205   88.8603    7.7438 H       1  UNL1        0.1192
     40 H          61.1098   89.4435    9.2547 H       1  UNL1        0.1192
     41 C          61.2376   86.3520    8.2566 C.ar    1  UNL1       -0.0063
     42 C          60.2846   85.7409    7.2726 C.ar    1  UNL1       -0.0029
     43 C          60.7668   84.6948    6.3118 C.ar    1  UNL1       -0.0003
     44 C          62.2021   84.2599    6.3351 C.ar    1  UNL1       -0.0000
     45 C          63.1552   84.8710    7.3191 C.ar    1  UNL1       -0.0003
     46 C          62.6730   85.9171    8.2798 C.ar    1  UNL1       -0.0029
@<TRIPOS>BOND
     1    22    23    1
     2    23    21    1
     3    21    19    1
     4    19    20    2
     5    19    18    1
     6    18    16    1
     7    16    15    1
     8    15     9    1
     9     9    10   ar
    10    10    11   ar
    11    11    12   ar
    12    12     1    1
    13     1     2   ar
    14     2     3   ar
    15     3    24    1
    16    24    25    1
    17    25    26   ar
    18    26    27    1
    19    26    28   ar
    20    28    29   ar
    21    29    30   ar
    22    30    31   ar
    23    31    32    1
    24    32    33    1
    25    32    34    1
    26    32    35    1
    27     3     4   ar
    28     4     5    2
    29     4     6   ar
    30     6    36    1
    31    36    37    1
    32    37    38    1
    33    37    41    1
    34    41    42   ar
    35    42    43   ar
    36    43    44   ar
    37    44    45   ar
    38    45    46   ar
    39     6     7   ar
    40     7     8    2
    41    12    13   ar
    42    13    14   ar
    43    14     9   ar
    44     7     1   ar
    45    31    25   ar
    46    46    41   ar
    47    16    17    1
    48    38    39    1
    49    38    40    1
@<TRIPOS>MOLECULE
*****
 46 49 0 0 0
SMALL
GASTEIGER

@<TRIPOS>ATOM
      1 C          63.5531   88.4907   12.7608 C.ar    1  UNL1        0.0736
      2 C          64.1336   87.2081   13.2785 C.ar    1  UNL1        0.0847
      3 N          63.4657   85.9021   12.9649 N.ar    1  UNL1       -0.2755
      4 C          62.2173   85.8788   12.1336 C.ar    1  UNL1        0.3341
      5 O          61.5494   84.5728   11.8200 O.2     1  UNL1       -0.2462
      6 N          61.6369   87.1613   11.6160 N.ar    1  UNL1       -0.2470
      7 C          62.3048   88.4673   11.9296 C.ar    1  UNL1        0.2657
      8 O          61.7243   89.7499   11.4118 O.2     1  UNL1       -0.2668
      9 C          65.5568   92.4086   13.7017 C.ar    1  UNL1       -0.0064
     10 C          65.5011   91.3266   14.7390 C.ar    1  UNL1       -0.0029
     11 C          64.8332   90.0206   14.4254 C.ar    1  UNL1       -0.0001
     12 C          64.2210   89.7967   13.0744 C.ar    1  UNL1        0.0060
     13 C          64.2767   90.8787   12.0371 C.ar    1  UNL1       -0.0001
     14 C          64.9446   92.1847   12.3507 C.ar    1  UNL1       -0.0029
     15 C          66.2247   93.7146   14.0153 C.3     1  UNL1        0.0960
     16 N          66.9569   94.4600   12.9391 N.3     1  UNL1       -0.2844
     17 H          67.6134   95.0843   13.4077 H       1  UNL1        0.1241
     18 C          66.1944   95.2946   11.9531 C.3     1  UNL1        0.1800
     19 C          66.6195   95.3319   10.5150 C.2     1  UNL1        0.3333
     20 O          65.8745   96.1885    9.5347 O.2     1  UNL1       -0.2485
     21 O          67.7896   94.5126   10.0573 O.3     1  UNL1       -0.4475
     22 C          68.6758   92.3475    8.9273 C.3     1  UNL1        0.0513
     23 C          67.5933   93.0782    9.6649 C.3     1  UNL1        0.2086
     24 C          64.0462   84.6195   13.4826 C.3     1  UNL1        0.1394
     25 C          63.2155   83.3706   13.4928 C.ar    1  UNL1        0.0319
     26 C          62.2838   83.0988   14.6365 C.ar    1  UNL1        0.1379
     27 F          62.1826   84.0760   15.7700 F       1  UNL1       -0.2044
     28 C          61.4531   81.8498   14.6466 C.ar    1  UNL1        0.0294
     29 C          61.5543   80.8726   13.5132 C.ar    1  UNL1        0.0022
     30 C          62.4860   81.1443   12.3695 C.ar    1  UNL1        0.0037
     31 C          63.3166   82.3933   12.3593 C.ar    1  UNL1        0.0714
     32 C          64.2484   82.6650   11.2156 C.3     1  UNL1        0.4184
     33 F          65.1802   82.9368   10.0720 F       1  UNL1       -0.1659
     34 F          63.0907   83.1303   10.3830 F       1  UNL1       -0.1659
     35 F          65.4061   82.1998   12.0483 F       1  UNL1       -0.1659
     36 C          60.3885   87.1380   10.7846 C.3     1  UNL1        0.1334
     37 C          60.4654   87.3937    9.3086 C.3     1  UNL1        0.0968
     38 N          59.9116   88.6655    8.7379 N.3     1  UNL1       -0.3172
     39 H          60.0480   88.6723    7.7271 H       1  UNL1        0.1192
     40 H          60.3950   89.4627    9.1516 H       1  UNL1        0.1192
     41 C          61.0962   86.3775    8.4033 C.ar    1  UNL1       -0.0063
     42 C          60.2917   85.7511    7.3032 C.ar    1  UNL1       -0.0029
     43 C          60.9224   84.7350    6.3979 C.ar    1  UNL1       -0.0003
     44 C          62.3577   84.3453    6.5926 C.ar    1  UNL1       -0.0000
     45 C          63.1623   84.9718    7.6927 C.ar    1  UNL1       -0.0003
     46 C          62.5316   85.9879    8.5980 C.ar    1  UNL1       -0.0029
@<TRIPOS>BOND
     1    22    23    1
     2    23    21    1
     3    21    19    1
     4    19    20    2
     5    19    18    1
     6    18    16    1
     7    16    15    1
     8    15     9    1
     9     9    10   ar
    10    10    11   ar
    11    11    12   ar
    12    12     1    1
    13     1     2   ar
    14     2     3   ar
    15     3    24    1
    16    24    25    1
    17    25    26   ar
    18    26    27    1
    19    26    28   ar
    20    28    29   ar
    21    29    30   ar
    22    30    31   ar
    23    31    32    1
    24    32    33    1
    25    32    34    1
    26    32    35    1
    27     3     4   ar
    28     4     5    2
    29     4     6   ar
    30     6    36    1
    31    36    37    1
    32    37    38    1
    33    37    41    1
    34    41    42   ar
    35    42    43   ar
    36    43    44   ar
    37    44    45   ar
    38    45    46   ar
    39     6     7   ar
    40     7     8    2
    41    12    13   ar
    42    13    14   ar
    43    14     9   ar
    44     7     1   ar
    45    31    25   ar
    46    46    41   ar
    47    16    17    1
    48    38    39    1
    49    38    40    1
