@<TRIPOS>MOLECULE
*****
 63 70 0 0 0
SMALL
GASTEIGER

@<TRIPOS>ATOM
      1 N          65.7535   89.9307   13.9642 N.3     1  UNL1       -0.1862
      2 C          66.1819   88.7563   14.7931 C.3     1  UNL1        0.1775
      3 C          65.3749   87.4920   14.7761 C.2     1  UNL1        0.2452
      4 O          65.8034   86.3176   15.6052 O.2     1  UNL1       -0.2732
      5 N          64.1396   87.4020   13.9301 N.am    1  UNL1       -0.2541
      6 C          63.7112   88.5764   13.1011 C.3     1  UNL1        0.1908
      7 C          62.4758   88.4865   12.2550 C.3     1  UNL1        0.1359
      8 N          61.6688   87.2222   12.2380 N.am    1  UNL1       -0.2705
      9 C          62.0973   86.0477   13.0670 C.2     1  UNL1        0.2445
     10 O          61.2904   84.7834   13.0500 O.2     1  UNL1       -0.2731
     11 C          63.3326   86.1377   13.9130 C.3     1  UNL1        0.1577
     12 N          64.5181   89.8408   13.1181 N.am    1  UNL1       -0.1863
     13 C          64.0897   91.0152   12.2891 C.2     1  UNL1        0.3191
     14 O          62.8543   90.9252   11.4431 O.2     1  UNL1       -0.2512
     15 N          64.8966   92.2795   12.3061 N.am    1  UNL1       -0.2836
     16 H          65.7074   92.3385   12.8614 H       1  UNL1        0.1513
     17 C          66.5604   91.1951   13.9812 C.3     1  UNL1        0.1188
     18 C          66.9931   92.7672   16.0038 C.2     1  UNL1       -0.0034
     19 C          67.3610   91.5575   15.1968 C.2     1  UNL1       -0.0071
     20 C          60.4335   87.1322   11.3919 C.3     1  UNL1        0.1217
     21 C          60.5420   87.1950    9.8971 C.ar    1  UNL1        0.0135
     22 C          60.9909   85.9890    9.1264 C.ar    1  UNL1       -0.0012
     23 C          61.0994   86.0518    7.6317 C.ar    1  UNL1       -0.0002
     24 C          60.7589   87.3206    6.9077 C.ar    1  UNL1        0.0016
     25 C          60.3099   88.5266    7.6784 C.ar    1  UNL1        0.0214
     26 C          59.9099   89.9049    7.2422 C.ar    1  UNL1        0.0722
     27 C          59.5543   90.6939    8.4673 C.ar    1  UNL1        0.0805
     28 N          59.7345   89.8033    9.6607 N.ar    1  UNL1       -0.3241
     29 C          59.4905   90.1851   11.0906 C.3     1  UNL1        0.1305
     30 C          60.2015   88.4638    9.1731 C.ar    1  UNL1        0.0577
     31 C          59.8722   90.4062    5.8288 C.2     1  UNL1        0.2510
     32 O          58.6925   90.0983    4.9551 O.2     1  UNL1       -0.2698
     33 N          61.0143   91.2153    5.2893 N.am    1  UNL1       -0.2791
     34 H          61.7886   91.4174    5.8628 H       1  UNL1        0.1552
     35 C          60.9766   91.7166    3.8761 C.ar    1  UNL1        0.0701
     36 C          62.1679   91.5327    2.9832 C.ar    1  UNL1        0.0191
     37 C          62.1303   92.0340    1.5700 C.ar    1  UNL1        0.0356
     38 C          60.9016   92.7191    1.0496 C.ar    1  UNL1        0.1319
     39 N          59.7103   92.9029    1.9425 N.ar    1  UNL1       -0.2279
     40 C          59.7479   92.4016    3.3557 C.ar    1  UNL1        0.1149
     41 N          60.8639   93.2203   -0.3636 N.pl3   1  UNL1       -0.2904
     42 C          59.6638   92.9524   -1.2228 C.3     1  UNL1        0.1092
     43 C          59.6261   93.4536   -2.6360 C.3     1  UNL1        0.0904
     44 N          60.7885   94.2229   -3.1902 N.3     1  UNL1       -0.2946
     45 C          61.9886   94.4908   -2.3312 C.3     1  UNL1        0.0904
     46 C          62.0263   93.9895   -0.9179 C.3     1  UNL1        0.1092
     47 H          60.4278   95.1307   -3.4837 H       1  UNL1        0.1233
     48 C          63.7610   84.9633   14.7420 C.3     1  UNL1        0.0556
     49 C          63.4470   83.5691   14.2863 C.ar    1  UNL1       -0.0198
     50 C          64.2864   82.9195   13.2265 C.ar    1  UNL1       -0.0011
     51 C          63.9723   81.5254   12.7708 C.ar    1  UNL1        0.0363
     52 C          62.8188   80.7808   13.3750 C.ar    1  UNL1        0.1337
     53 O          62.5048   79.3866   12.9193 O.3     1  UNL1       -0.5055
     54 C          61.9794   81.4304   14.4349 C.ar    1  UNL1        0.0363
     55 C          62.2934   82.8246   14.8906 C.ar    1  UNL1       -0.0011
     56 H          63.0291   78.9808   12.2572 H       1  UNL1        0.2922
     57 C          64.4682   93.4539   11.4771 C.3     1  UNL1        0.1177
     58 C          65.4645   94.1610   10.6069 C.ar    1  UNL1       -0.0025
     59 C          65.3402   95.6371   10.3711 C.ar    1  UNL1       -0.0026
     60 C          66.3365   96.3441    9.5008 C.ar    1  UNL1       -0.0003
     61 C          67.4572   95.5751    8.8663 C.ar    1  UNL1       -0.0000
     62 C          67.5816   94.0989    9.1021 C.ar    1  UNL1       -0.0003
     63 C          66.5853   93.3919    9.9723 C.ar    1  UNL1       -0.0026
@<TRIPOS>BOND
     1    18    19    2
     2    19    17    1
     3    17     1    1
     4     1     2    1
     5     2     3    1
     6     3     4    2
     7     3     5   am
     8     5     6    1
     9     6     7    1
    10     7     8    1
    11     8    20    1
    12    20    21    1
    13    21    22   ar
    14    22    23   ar
    15    23    24   ar
    16    24    25   ar
    17    25    26   ar
    18    26    31    1
    19    31    32    2
    20    31    33   am
    21    33    35    1
    22    35    36   ar
    23    36    37   ar
    24    37    38   ar
    25    38    41    1
    26    41    42    1
    27    42    43    1
    28    43    44    1
    29    44    45    1
    30    45    46    1
    31    38    39   ar
    32    39    40   ar
    33    26    27   ar
    34    27    28   ar
    35    28    29    1
    36    28    30   ar
    37     8     9   am
    38     9    10    2
    39     9    11    1
    40    11    48    1
    41    48    49    1
    42    49    50   ar
    43    50    51   ar
    44    51    52   ar
    45    52    53    1
    46    52    54   ar
    47    54    55   ar
    48     6    12    1
    49    12    13   am
    50    13    14    2
    51    13    15   am
    52    15    57    1
    53    57    58    1
    54    58    59   ar
    55    59    60   ar
    56    60    61   ar
    57    61    62   ar
    58    62    63   ar
    59    12     1    1
    60    63    58   ar
    61    11     5    1
    62    55    49   ar
    63    30    21   ar
    64    30    25   ar
    65    40    35   ar
    66    46    41    1
    67    33    34    1
    68    44    47    1
    69    53    56    1
    70    15    16    1
@<TRIPOS>MOLECULE
*****
 63 70 0 0 0
SMALL
GASTEIGER

@<TRIPOS>ATOM
      1 N          65.7188   89.5490   14.3926 N.3     1  UNL1       -0.1862
      2 C          66.0084   88.3380   15.2290 C.3     1  UNL1        0.1775
      3 C          65.1897   87.0932   15.0553 C.2     1  UNL1        0.2452
      4 O          65.4794   85.8822   15.8918 O.2     1  UNL1       -0.2732
      5 N          64.0812   87.0594   14.0453 N.am    1  UNL1       -0.2541
      6 C          63.7916   88.2704   13.2089 C.3     1  UNL1        0.1908
      7 C          62.6831   88.2366   12.1988 C.3     1  UNL1        0.1359
      8 N          61.8643   86.9919   12.0252 N.am    1  UNL1       -0.2705
      9 C          62.1540   85.7808   12.8616 C.2     1  UNL1        0.2445
     10 O          61.3353   84.5361   12.6880 O.2     1  UNL1       -0.2731
     11 C          63.2625   85.8146   13.8717 C.3     1  UNL1        0.1577
     12 N          64.6103   89.5152   13.3826 N.am    1  UNL1       -0.1863
     13 C          64.3206   90.7262   12.5461 C.2     1  UNL1        0.3191
     14 O          63.2122   90.6924   11.5361 O.2     1  UNL1       -0.2512
     15 N          65.1394   91.9710   12.7198 N.am    1  UNL1       -0.2836
     16 H          65.8669   91.9931   13.3827 H       1  UNL1        0.1513
     17 C          66.5375   90.7937   14.5663 C.3     1  UNL1        0.1188
     18 C          66.8709   93.1149   15.6848 C.2     1  UNL1       -0.0034
     19 C          66.1768   91.7862   15.6315 C.2     1  UNL1       -0.0071
     20 C          60.7559   86.9581   11.0151 C.3     1  UNL1        0.1217
     21 C          60.3552   88.2137   10.2990 C.ar    1  UNL1        0.0135
     22 C          59.9889   89.4395   11.0822 C.ar    1  UNL1       -0.0012
     23 C          59.5882   90.6951   10.3661 C.ar    1  UNL1       -0.0002
     24 C          59.5539   90.7250    8.8668 C.ar    1  UNL1        0.0016
     25 C          59.9202   89.4993    8.0836 C.ar    1  UNL1        0.0214
     26 C          59.9787   89.2307    6.6090 C.ar    1  UNL1        0.0722
     27 C          60.4155   87.8090    6.4138 C.ar    1  UNL1        0.0805
     28 N          60.6270   87.1991    7.7677 N.ar    1  UNL1       -0.3241
     29 C          61.0673   85.7915    8.0415 C.3     1  UNL1        0.1305
     30 C          60.3209   88.2436    8.7997 C.ar    1  UNL1        0.0577
     31 C          59.6569   90.2116    5.5207 C.2     1  UNL1        0.2510
     32 O          58.2285   90.5598    5.2232 O.2     1  UNL1       -0.2698
     33 N          60.7634   90.8442    4.7299 N.am    1  UNL1       -0.2791
     34 H          61.7009   90.6157    4.9252 H       1  UNL1        0.1552
     35 C          60.4417   91.8251    3.6417 C.ar    1  UNL1        0.0701
     36 C          61.5496   92.4908    2.8805 C.ar    1  UNL1        0.0191
     37 C          61.2279   93.4717    1.7922 C.ar    1  UNL1        0.0356
     38 C          59.7984   93.7868    1.4651 C.ar    1  UNL1        0.1319
     39 N          58.6904   93.1210    2.2262 N.ar    1  UNL1       -0.2279
     40 C          59.0121   92.1402    3.3145 C.ar    1  UNL1        0.1149
     41 N          59.4766   94.7676    0.3768 N.pl3   1  UNL1       -0.2904
     42 C          60.4426   95.8672    0.0485 C.3     1  UNL1        0.1092
     43 C          60.1210   96.8481   -1.0398 C.3     1  UNL1        0.0904
     44 N          58.8332   96.7295   -1.7998 N.3     1  UNL1       -0.2946
     45 C          57.8672   95.6300   -1.4715 C.3     1  UNL1        0.0904
     46 C          58.1889   94.6490   -0.3832 C.3     1  UNL1        0.1092
     47 H          59.0807   96.6201   -2.7832 H       1  UNL1        0.1233
     48 C          63.5521   84.6037   14.7080 C.3     1  UNL1        0.0556
     49 C          63.2860   83.2328   14.1604 C.ar    1  UNL1       -0.0198
     50 C          62.2137   82.3777   14.7677 C.ar    1  UNL1       -0.0011
     51 C          61.9476   81.0068   14.2201 C.ar    1  UNL1        0.0363
     52 C          62.7539   80.4910   13.0651 C.ar    1  UNL1        0.1337
     53 O          62.4878   79.1202   12.5175 O.3     1  UNL1       -0.5055
     54 C          63.8262   81.3462   12.4578 C.ar    1  UNL1        0.0363
     55 C          64.0923   82.7170   13.0054 C.ar    1  UNL1       -0.0011
     56 H          61.8179   78.5860   12.8969 H       1  UNL1        0.2922
     57 C          64.8497   93.1820   11.8834 C.3     1  UNL1        0.1177
     58 C          65.8904   93.7083   10.9400 C.ar    1  UNL1       -0.0025
     59 C          66.9322   92.7849   10.3816 C.ar    1  UNL1       -0.0026
     60 C          67.9729   93.3113    9.4382 C.ar    1  UNL1       -0.0003
     61 C          67.9717   94.7610    9.0532 C.ar    1  UNL1       -0.0000
     62 C          66.9298   95.6845    9.6117 C.ar    1  UNL1       -0.0003
     63 C          65.8892   95.1581   10.5551 C.ar    1  UNL1       -0.0026
@<TRIPOS>BOND
     1    18    19    2
     2    19    17    1
     3    17     1    1
     4     1     2    1
     5     2     3    1
     6     3     4    2
     7     3     5   am
     8     5     6    1
     9     6     7    1
    10     7     8    1
    11     8    20    1
    12    20    21    1
    13    21    22   ar
    14    22    23   ar
    15    23    24   ar
    16    24    25   ar
    17    25    26   ar
    18    26    31    1
    19    31    32    2
    20    31    33   am
    21    33    35    1
    22    35    36   ar
    23    36    37   ar
    24    37    38   ar
    25    38    41    1
    26    41    42    1
    27    42    43    1
    28    43    44    1
    29    44    45    1
    30    45    46    1
    31    38    39   ar
    32    39    40   ar
    33    26    27   ar
    34    27    28   ar
    35    28    29    1
    36    28    30   ar
    37     8     9   am
    38     9    10    2
    39     9    11    1
    40    11    48    1
    41    48    49    1
    42    49    50   ar
    43    50    51   ar
    44    51    52   ar
    45    52    53    1
    46    52    54   ar
    47    54    55   ar
    48     6    12    1
    49    12    13   am
    50    13    14    2
    51    13    15   am
    52    15    57    1
    53    57    58    1
    54    58    59   ar
    55    59    60   ar
    56    60    61   ar
    57    61    62   ar
    58    62    63   ar
    59    12     1    1
    60    63    58   ar
    61    11     5    1
    62    55    49   ar
    63    30    21   ar
    64    30    25   ar
    65    40    35   ar
    66    46    41    1
    67    33    34    1
    68    44    47    1
    69    53    56    1
    70    15    16    1
@<TRIPOS>MOLECULE
*****
 63 70 0 0 0
SMALL
GASTEIGER

@<TRIPOS>ATOM
      1 N          64.5763   83.1827   13.2351 N.3     1  UNL1       -0.1862
      2 C          65.1970   84.0573   14.2838 C.3     1  UNL1        0.1775
      3 C          64.7723   85.4901   14.4130 C.2     1  UNL1        0.2452
      4 O          65.3931   86.3647   15.4617 O.2     1  UNL1       -0.2732
      5 N          63.7270   86.0483   13.4935 N.am    1  UNL1       -0.2541
      6 C          63.1062   85.1737   12.4448 C.3     1  UNL1        0.1908
      7 C          62.0608   85.7320   11.5253 C.3     1  UNL1        0.1359
      8 N          61.6361   87.1648   11.6545 N.am    1  UNL1       -0.2705
      9 C          62.2569   88.0394   12.7032 C.2     1  UNL1        0.2445
     10 O          61.8322   89.4722   12.8324 O.2     1  UNL1       -0.2731
     11 C          63.3023   87.4812   13.6227 C.3     1  UNL1        0.1577
     12 N          63.5309   83.7409   12.3156 N.am    1  UNL1       -0.1863
     13 C          62.9101   82.8663   11.2669 C.2     1  UNL1        0.3191
     14 O          61.8647   83.4246   10.3474 O.2     1  UNL1       -0.2512
     15 N          63.3348   81.4335   11.1377 N.am    1  UNL1       -0.2836
     16 H          64.0209   81.0671   11.7412 H       1  UNL1        0.1513
     17 C          65.0010   81.7499   13.1059 C.3     1  UNL1        0.1188
     18 C          62.8365   80.8282   14.2085 C.2     1  UNL1       -0.0034
     19 C          64.2958   80.6848   13.8922 C.2     1  UNL1       -0.0071
     20 C          60.5907   87.7230   10.7350 C.3     1  UNL1        0.1217
     21 C          60.9267   88.8658    9.8233 C.ar    1  UNL1        0.0135
     22 C          61.9461   89.8839   10.2410 C.ar    1  UNL1       -0.0012
     23 C          62.2821   91.0266    9.3294 C.ar    1  UNL1       -0.0002
     24 C          61.5988   91.1513    8.0000 C.ar    1  UNL1        0.0016
     25 C          60.5794   90.1333    7.5822 C.ar    1  UNL1        0.0214
     26 C          59.7483   89.9960    6.3411 C.ar    1  UNL1        0.0722
     27 C          58.8986   88.7683    6.4857 C.ar    1  UNL1        0.0805
     28 N          59.2046   88.1470    7.8161 N.ar    1  UNL1       -0.3241
     29 C          58.5813   86.9008    8.3715 C.3     1  UNL1        0.1305
     30 C          60.2434   88.9906    8.4938 C.ar    1  UNL1        0.0577
     31 C          59.7641   90.9235    5.1622 C.2     1  UNL1        0.2510
     32 O          58.4778   91.4835    4.6313 O.2     1  UNL1       -0.2698
     33 N          61.0661   91.2910    4.5144 N.am    1  UNL1       -0.2791
     34 H          61.9103   90.9234    4.8630 H       1  UNL1        0.1552
     35 C          61.0820   92.2184    3.3357 C.ar    1  UNL1        0.0701
     36 C          62.2241   92.1770    2.3642 C.ar    1  UNL1        0.0191
     37 C          62.2401   93.1045    1.1854 C.ar    1  UNL1        0.0356
     38 C          61.1139   94.0733    0.9781 C.ar    1  UNL1        0.1319
     39 N          59.9717   94.1147    1.9496 N.ar    1  UNL1       -0.2279
     40 C          59.9558   93.1873    3.1284 C.ar    1  UNL1        0.1149
     41 N          61.1297   95.0008   -0.2007 N.pl3   1  UNL1       -0.2904
     42 C          62.3992   95.6996   -0.5882 C.3     1  UNL1        0.1092
     43 C          62.4152   96.6270   -1.7669 C.3     1  UNL1        0.0904
     44 N          61.1616   96.8558   -2.5583 N.3     1  UNL1       -0.2946
     45 C          59.8921   96.1570   -2.1709 C.3     1  UNL1        0.0904
     46 C          59.8762   95.2295   -0.9920 C.3     1  UNL1        0.1092
     47 H          61.3663   96.5830   -3.5196 H       1  UNL1        0.1233
     48 C          63.9230   88.3557   14.6714 C.3     1  UNL1        0.0556
     49 C          64.5428   89.6658   14.2847 C.ar    1  UNL1       -0.0198
     50 C          65.4685   90.3669   15.2342 C.ar    1  UNL1       -0.0011
     51 C          66.0882   91.6770   14.8475 C.ar    1  UNL1        0.0363
     52 C          65.7823   92.2861   13.5114 C.ar    1  UNL1        0.1337
     53 O          66.4020   93.5962   13.1247 O.3     1  UNL1       -0.5055
     54 C          64.8565   91.5850   12.5618 C.ar    1  UNL1        0.0363
     55 C          64.2368   90.2749   12.9485 C.ar    1  UNL1       -0.0011
     56 H          66.9803   94.0341   13.7178 H       1  UNL1        0.2922
     57 C          62.7141   80.5589   10.0890 C.3     1  UNL1        0.1177
     58 C          63.0889   79.1090   10.0036 C.ar    1  UNL1       -0.0025
     59 C          62.4827   78.1203   10.9548 C.ar    1  UNL1       -0.0026
     60 C          62.8576   76.6704   10.8693 C.ar    1  UNL1       -0.0003
     61 C          63.8386   76.2093    9.8326 C.ar    1  UNL1       -0.0000
     62 C          64.4449   77.1980    8.8813 C.ar    1  UNL1       -0.0003
     63 C          64.0700   78.6479    8.9668 C.ar    1  UNL1       -0.0026
@<TRIPOS>BOND
     1    18    19    2
     2    19    17    1
     3    17     1    1
     4     1     2    1
     5     2     3    1
     6     3     4    2
     7     3     5   am
     8     5     6    1
     9     6     7    1
    10     7     8    1
    11     8    20    1
    12    20    21    1
    13    21    22   ar
    14    22    23   ar
    15    23    24   ar
    16    24    25   ar
    17    25    26   ar
    18    26    31    1
    19    31    32    2
    20    31    33   am
    21    33    35    1
    22    35    36   ar
    23    36    37   ar
    24    37    38   ar
    25    38    41    1
    26    41    42    1
    27    42    43    1
    28    43    44    1
    29    44    45    1
    30    45    46    1
    31    38    39   ar
    32    39    40   ar
    33    26    27   ar
    34    27    28   ar
    35    28    29    1
    36    28    30   ar
    37     8     9   am
    38     9    10    2
    39     9    11    1
    40    11    48    1
    41    48    49    1
    42    49    50   ar
    43    50    51   ar
    44    51    52   ar
    45    52    53    1
    46    52    54   ar
    47    54    55   ar
    48     6    12    1
    49    12    13   am
    50    13    14    2
    51    13    15   am
    52    15    57    1
    53    57    58    1
    54    58    59   ar
    55    59    60   ar
    56    60    61   ar
    57    61    62   ar
    58    62    63   ar
    59    12     1    1
    60    63    58   ar
    61    11     5    1
    62    55    49   ar
    63    30    21   ar
    64    30    25   ar
    65    40    35   ar
    66    46    41    1
    67    33    34    1
    68    44    47    1
    69    53    56    1
    70    15    16    1
