@<TRIPOS>MOLECULE
*****
 33 37 0 0 0
SMALL
GASTEIGER

@<TRIPOS>ATOM
      1 N          64.3038   91.0867   12.9150 N.ar    1  UNL1       -0.2690
      2 C          63.4888   91.1755   11.6589 C.ar    1  UNL1        0.1975
      3 N          64.1622   92.1485   10.7371 N.ar    1  UNL1       -0.1218
      4 N          65.3935   92.6611   11.4236 N.ar    1  UNL1       -0.1279
      5 C          65.4809   92.0049   12.7696 C.ar    1  UNL1        0.1707
      6 C          63.3795   88.5170   16.4917 C.ar    1  UNL1        0.1388
      7 C          63.8787   87.8877   15.2250 C.ar    1  UNL1        0.0384
      8 C          64.1868   88.7443   14.0327 C.ar    1  UNL1        0.0207
      9 C          63.9957   90.2302   14.1073 C.ar    1  UNL1        0.0674
     10 C          63.4965   90.8595   15.3740 C.ar    1  UNL1        0.0207
     11 C          63.1884   90.0029   16.5662 C.ar    1  UNL1        0.0384
     12 C          62.5998   86.2496   17.4920 C.3     1  UNL1        0.2525
     13 O          63.0714   87.6605   17.6839 O.3     1  UNL1       -0.4714
     14 C          66.5567   92.2278   13.7909 C.ar    1  UNL1        0.0394
     15 C          67.9771   91.8622   13.4760 C.ar    1  UNL1        0.0237
     16 C          69.0529   92.0851   14.4973 C.ar    1  UNL1        0.0990
     17 N          68.7084   92.6735   15.8334 N.ar    1  UNL1       -0.2423
     18 C          67.2881   93.0390   16.1482 C.ar    1  UNL1        0.0990
     19 C          66.2123   92.8162   15.1269 C.ar    1  UNL1        0.0237
     20 S          62.2226   90.4233   11.3744 S.3     1  UNL1       -0.0653
     21 C          62.0517   89.7101   10.0660 C.3     1  UNL1        0.1528
     22 C          62.0140   88.2111   10.0281 C.ar    1  UNL1        0.2480
     23 N          62.5230   87.2891   11.0963 N.ar    1  UNL1       -0.1900
     24 C          62.2843   85.8790   10.6438 C.ar    1  UNL1        0.2033
     25 N          61.6279   85.9295    9.2959 N.ar    1  UNL1       -0.0560
     26 O          61.4609   87.3708    8.9154 O.2     1  UNL1       -0.3361
     27 C          62.6397   84.6366   11.4053 C.ar    1  UNL1        0.0391
     28 C          62.4806   84.5995   12.8964 C.ar    1  UNL1        0.0028
     29 C          62.8359   83.3570   13.6580 C.ar    1  UNL1       -0.0042
     30 C          63.3505   82.1516   12.9285 C.ar    1  UNL1       -0.0218
     31 C          63.7059   80.9091   13.6899 C.3     1  UNL1        0.0310
     32 C          63.5096   82.1887   11.4374 C.ar    1  UNL1       -0.0042
     33 C          63.1542   83.4312   10.6758 C.ar    1  UNL1        0.0028
@<TRIPOS>BOND
     1    12    13    1
     2    13     6    1
     3     6     7   ar
     4     7     8   ar
     5     8     9   ar
     6     9     1    1
     7     1     2   ar
     8     2    20    1
     9    20    21    1
    10    21    22    1
    11    22    23   ar
    12    23    24   ar
    13    24    27    1
    14    27    28   ar
    15    28    29   ar
    16    29    30   ar
    17    30    31    1
    18    30    32   ar
    19    32    33   ar
    20    24    25   ar
    21    25    26   ar
    22     2     3   ar
    23     3     4   ar
    24     4     5   ar
    25     5    14    1
    26    14    15   ar
    27    15    16   ar
    28    16    17   ar
    29    17    18   ar
    30    18    19   ar
    31     9    10   ar
    32    10    11   ar
    33    11     6   ar
    34     5     1   ar
    35    19    14   ar
    36    26    22   ar
    37    33    27   ar
@<TRIPOS>MOLECULE
*****
 33 37 0 0 0
SMALL
GASTEIGER

@<TRIPOS>ATOM
      1 N          65.0618   91.9043   12.1423 N.ar    1  UNL1       -0.2690
      2 C          63.8157   91.1481   11.7882 C.ar    1  UNL1        0.1975
      3 N          63.4292   90.3113   12.9716 N.ar    1  UNL1       -0.1218
      4 N          64.4365   90.5503   14.0571 N.ar    1  UNL1       -0.1279
      5 C          65.4455   91.5348   13.5446 C.ar    1  UNL1        0.1707
      6 C          67.2628   94.7768    9.4676 C.ar    1  UNL1        0.1388
      7 C          66.1654   95.2745   10.3609 C.ar    1  UNL1        0.0384
      8 C          65.4318   94.3170   11.2525 C.ar    1  UNL1        0.0207
      9 C          65.7955   92.8618   11.2508 C.ar    1  UNL1        0.0674
     10 C          66.8928   92.3641   10.3574 C.ar    1  UNL1        0.0207
     11 C          67.6265   93.3216    9.4658 C.ar    1  UNL1        0.0384
     12 C          67.2561   96.8556    7.9092 C.3     1  UNL1        0.2525
     13 O          67.9964   95.7344    8.5760 O.3     1  UNL1       -0.4714
     14 C          66.6301   92.0580   14.3015 C.ar    1  UNL1        0.0394
     15 C          68.0108   91.8992   13.7367 C.ar    1  UNL1        0.0237
     16 C          69.1954   92.4224   14.4936 C.ar    1  UNL1        0.0990
     17 N          68.9996   93.1043   15.8152 N.ar    1  UNL1       -0.2423
     18 C          67.6190   93.2631   16.3799 C.ar    1  UNL1        0.0990
     19 C          66.4344   92.7399   15.6230 C.ar    1  UNL1        0.0237
     20 S          63.0845   91.2167   10.4804 S.3     1  UNL1       -0.0653
     21 C          61.7593   90.5315   10.3252 C.3     1  UNL1        0.1528
     22 C          61.7023   89.0476   10.1134 C.ar    1  UNL1        0.2480
     23 N          62.4237   88.0129   10.9252 N.ar    1  UNL1       -0.1900
     24 C          62.0813   86.6637   10.3662 C.ar    1  UNL1        0.2033
     25 N          61.1483   86.8645    9.2090 N.ar    1  UNL1       -0.0560
     26 O          60.9141   88.3379    9.0528 O.2     1  UNL1       -0.3361
     27 C          62.5837   85.3451   10.8751 C.ar    1  UNL1        0.0391
     28 C          63.2462   84.3816    9.9355 C.ar    1  UNL1        0.0028
     29 C          63.7485   83.0631   10.4444 C.ar    1  UNL1       -0.0042
     30 C          63.5884   82.7079   11.8929 C.ar    1  UNL1       -0.0218
     31 C          64.0907   81.3894   12.4019 C.3     1  UNL1        0.0310
     32 C          62.9259   83.6714   12.8325 C.ar    1  UNL1       -0.0042
     33 C          62.4235   84.9900   12.3236 C.ar    1  UNL1        0.0028
@<TRIPOS>BOND
     1    12    13    1
     2    13     6    1
     3     6     7   ar
     4     7     8   ar
     5     8     9   ar
     6     9     1    1
     7     1     2   ar
     8     2    20    1
     9    20    21    1
    10    21    22    1
    11    22    23   ar
    12    23    24   ar
    13    24    27    1
    14    27    28   ar
    15    28    29   ar
    16    29    30   ar
    17    30    31    1
    18    30    32   ar
    19    32    33   ar
    20    24    25   ar
    21    25    26   ar
    22     2     3   ar
    23     3     4   ar
    24     4     5   ar
    25     5    14    1
    26    14    15   ar
    27    15    16   ar
    28    16    17   ar
    29    17    18   ar
    30    18    19   ar
    31     9    10   ar
    32    10    11   ar
    33    11     6   ar
    34     5     1   ar
    35    19    14   ar
    36    26    22   ar
    37    33    27   ar
@<TRIPOS>MOLECULE
*****
 33 37 0 0 0
SMALL
GASTEIGER

@<TRIPOS>ATOM
      1 N          63.1218   86.4857   12.5060 N.ar    1  UNL1       -0.2690
      2 C          63.6495   87.6613   13.2737 C.ar    1  UNL1        0.1975
      3 N          64.4331   87.1387   14.4412 N.ar    1  UNL1       -0.1218
      4 N          64.3896   85.6401   14.3950 N.ar    1  UNL1       -0.1279
      5 C          63.5791   85.2365   13.1990 C.ar    1  UNL1        0.1707
      6 C          60.6079   86.6735    8.7784 C.ar    1  UNL1        0.1388
      7 C          60.1148   87.3019   10.0480 C.ar    1  UNL1        0.0384
      8 C          60.9528   87.2393   11.2905 C.ar    1  UNL1        0.0207
      9 C          62.2838   86.5483   11.2635 C.ar    1  UNL1        0.0674
     10 C          62.7769   85.9199    9.9939 C.ar    1  UNL1        0.0207
     11 C          61.9389   85.9825    8.7513 C.ar    1  UNL1        0.0384
     12 C          58.9225   87.9432    7.2628 C.3     1  UNL1        0.2525
     13 O          59.7699   86.7361    7.5359 O.3     1  UNL1       -0.4714
     14 C          63.2788   83.8305   12.7712 C.ar    1  UNL1        0.0394
     15 C          62.3663   82.9737   13.5979 C.ar    1  UNL1        0.0237
     16 C          62.0660   81.5677   13.1700 C.ar    1  UNL1        0.0990
     17 N          62.6781   81.0185   11.9156 N.ar    1  UNL1       -0.2423
     18 C          63.5906   81.8753   11.0890 C.ar    1  UNL1        0.0990
     19 C          63.8909   83.2813   11.5168 C.ar    1  UNL1        0.0237
     20 S          63.4320   89.1060   12.9337 S.3     1  UNL1       -0.0653
     21 C          63.6438   90.1623   13.9773 C.3     1  UNL1        0.1528
     22 C          64.5228   91.3417   13.6833 C.ar    1  UNL1        0.2480
     23 N          64.7541   91.9541   12.3337 N.ar    1  UNL1       -0.1900
     24 C          65.6991   93.1066   12.5035 C.ar    1  UNL1        0.2033
     25 N          66.0519   93.2064   13.9581 N.ar    1  UNL1       -0.0560
     26 O          65.3248   92.1156   14.6872 O.2     1  UNL1       -0.3361
     27 C          66.2030   94.0021   11.4107 C.ar    1  UNL1        0.0391
     28 C          66.1501   95.4918   11.5776 C.ar    1  UNL1        0.0028
     29 C          66.6539   96.3873   10.4848 C.ar    1  UNL1       -0.0042
     30 C          67.2107   95.7930    9.2251 C.ar    1  UNL1       -0.0218
     31 C          67.7146   96.6884    8.1322 C.3     1  UNL1        0.0310
     32 C          67.2637   94.3032    9.0583 C.ar    1  UNL1       -0.0042
     33 C          66.7598   93.4078   10.1511 C.ar    1  UNL1        0.0028
@<TRIPOS>BOND
     1    12    13    1
     2    13     6    1
     3     6     7   ar
     4     7     8   ar
     5     8     9   ar
     6     9     1    1
     7     1     2   ar
     8     2    20    1
     9    20    21    1
    10    21    22    1
    11    22    23   ar
    12    23    24   ar
    13    24    27    1
    14    27    28   ar
    15    28    29   ar
    16    29    30   ar
    17    30    31    1
    18    30    32   ar
    19    32    33   ar
    20    24    25   ar
    21    25    26   ar
    22     2     3   ar
    23     3     4   ar
    24     4     5   ar
    25     5    14    1
    26    14    15   ar
    27    15    16   ar
    28    16    17   ar
    29    17    18   ar
    30    18    19   ar
    31     9    10   ar
    32    10    11   ar
    33    11     6   ar
    34     5     1   ar
    35    19    14   ar
    36    26    22   ar
    37    33    27   ar
@<TRIPOS>MOLECULE
*****
 33 37 0 0 0
SMALL
GASTEIGER

@<TRIPOS>ATOM
      1 N          63.1439   86.4821   12.5937 N.ar    1  UNL1       -0.2690
      2 C          63.6857   87.6682   13.3352 C.ar    1  UNL1        0.1975
      3 N          64.4572   87.1626   14.5180 N.ar    1  UNL1       -0.1218
      4 N          64.3923   85.6640   14.5076 N.ar    1  UNL1       -0.1279
      5 C          63.5805   85.2435   13.3184 C.ar    1  UNL1        0.1707
      6 C          60.6468   86.6163    8.8525 C.ar    1  UNL1        0.1388
      7 C          60.1500   87.2668   10.1095 C.ar    1  UNL1        0.0384
      8 C          60.9824   87.2221   11.3566 C.ar    1  UNL1        0.0207
      9 C          62.3115   86.5269   11.3467 C.ar    1  UNL1        0.0674
     10 C          62.8082   85.8764   10.0897 C.ar    1  UNL1        0.0207
     11 C          61.9759   85.9211    8.8426 C.ar    1  UNL1        0.0384
     12 C          58.9667   87.8632    7.3123 C.3     1  UNL1        0.2525
     13 O          59.8144   86.6610    7.6055 O.3     1  UNL1       -0.4714
     14 C          63.2615   83.8321   12.9232 C.ar    1  UNL1        0.0394
     15 C          63.8632   83.2472   11.6797 C.ar    1  UNL1        0.0237
     16 C          63.5442   81.8358   11.2845 C.ar    1  UNL1        0.0990
     17 N          62.6236   81.0093   12.1327 N.ar    1  UNL1       -0.2423
     18 C          62.0220   81.5942   13.3760 C.ar    1  UNL1        0.0990
     19 C          62.3410   83.0056   13.7712 C.ar    1  UNL1        0.0237
     20 S          63.4903   89.1072   12.9597 S.3     1  UNL1       -0.0653
     21 C          63.6758   90.1827   13.9886 C.3     1  UNL1        0.1528
     22 C          64.5472   91.3661   13.6881 C.ar    1  UNL1        0.2480
     23 N          64.7724   91.9742   12.3356 N.ar    1  UNL1       -0.1900
     24 C          65.7108   93.1330   12.4989 C.ar    1  UNL1        0.2033
     25 N          66.0655   93.2410   13.9523 N.ar    1  UNL1       -0.0560
     26 O          65.3463   92.1489   14.6873 O.2     1  UNL1       -0.3361
     27 C          66.2073   94.0269   11.4014 C.ar    1  UNL1        0.0391
     28 C          66.7876   93.4308   10.1532 C.ar    1  UNL1        0.0028
     29 C          67.2841   94.3247    9.0558 C.ar    1  UNL1       -0.0042
     30 C          67.2004   95.8147    9.2065 C.ar    1  UNL1       -0.0218
     31 C          67.6969   96.7088    8.1091 C.3     1  UNL1        0.0310
     32 C          66.6201   96.4109   10.4547 C.ar    1  UNL1       -0.0042
     33 C          66.1236   95.5170   11.5522 C.ar    1  UNL1        0.0028
@<TRIPOS>BOND
     1    12    13    1
     2    13     6    1
     3     6     7   ar
     4     7     8   ar
     5     8     9   ar
     6     9     1    1
     7     1     2   ar
     8     2    20    1
     9    20    21    1
    10    21    22    1
    11    22    23   ar
    12    23    24   ar
    13    24    27    1
    14    27    28   ar
    15    28    29   ar
    16    29    30   ar
    17    30    31    1
    18    30    32   ar
    19    32    33   ar
    20    24    25   ar
    21    25    26   ar
    22     2     3   ar
    23     3     4   ar
    24     4     5   ar
    25     5    14    1
    26    14    15   ar
    27    15    16   ar
    28    16    17   ar
    29    17    18   ar
    30    18    19   ar
    31     9    10   ar
    32    10    11   ar
    33    11     6   ar
    34     5     1   ar
    35    19    14   ar
    36    26    22   ar
    37    33    27   ar
@<TRIPOS>MOLECULE
*****
 33 37 0 0 0
SMALL
GASTEIGER

@<TRIPOS>ATOM
      1 N          65.0459   91.7238   12.4931 N.ar    1  UNL1       -0.2690
      2 C          63.8488   90.8481   12.7167 C.ar    1  UNL1        0.1975
      3 N          63.0499   90.8220   11.4475 N.ar    1  UNL1       -0.1218
      4 N          63.7533   91.6815   10.4393 N.ar    1  UNL1       -0.1279
      5 C          64.9869   92.2388   11.0855 C.ar    1  UNL1        0.1707
      6 C          68.2516   92.6439   15.5142 C.ar    1  UNL1        0.1388
      7 C          66.8173   92.9548   15.8243 C.ar    1  UNL1        0.0384
      8 C          65.7487   92.6480   14.8172 C.ar    1  UNL1        0.0207
      9 C          66.1145   92.0305   13.5001 C.ar    1  UNL1        0.0674
     10 C          67.5488   91.7197   13.1901 C.ar    1  UNL1        0.0207
     11 C          68.6173   92.0264   14.1971 C.ar    1  UNL1        0.0384
     12 C          70.0926   94.2330   16.4282 C.3     1  UNL1        0.2525
     13 O          69.3201   92.9507   16.5213 O.3     1  UNL1       -0.4714
     14 C          65.9861   93.1511   10.4379 C.ar    1  UNL1        0.0394
     15 C          65.7653   94.6348   10.4502 C.ar    1  UNL1        0.0237
     16 C          66.7645   95.5471    9.8025 C.ar    1  UNL1        0.0990
     17 N          67.9844   94.9757    9.1426 N.ar    1  UNL1       -0.2423
     18 C          68.2051   93.4921    9.1303 C.ar    1  UNL1        0.0990
     19 C          67.2059   92.5799    9.7780 C.ar    1  UNL1        0.0237
     20 S          63.5100   90.1254   13.9868 S.3     1  UNL1       -0.0653
     21 C          64.4735   89.1312   14.5639 C.3     1  UNL1        0.1528
     22 C          64.0165   87.7365   14.8738 C.ar    1  UNL1        0.2480
     23 N          63.9885   86.5842   13.9138 N.ar    1  UNL1       -0.1900
     24 C          63.4620   85.3848   14.6447 C.ar    1  UNL1        0.2033
     25 N          63.1646   85.7958   16.0563 N.ar    1  UNL1       -0.0560
     26 O          63.5073   87.2493   16.1979 O.2     1  UNL1       -0.3361
     27 C          63.2671   84.0149   14.0656 C.ar    1  UNL1        0.0391
     28 C          63.9608   83.6335   12.7915 C.ar    1  UNL1        0.0028
     29 C          63.7659   82.2636   12.2124 C.ar    1  UNL1       -0.0042
     30 C          62.8773   81.2750   12.9075 C.ar    1  UNL1       -0.0218
     31 C          62.6824   79.9051   12.3285 C.3     1  UNL1        0.0310
     32 C          62.1837   81.6564   14.1816 C.ar    1  UNL1       -0.0042
     33 C          62.3786   83.0263   14.7607 C.ar    1  UNL1        0.0028
@<TRIPOS>BOND
     1    12    13    1
     2    13     6    1
     3     6     7   ar
     4     7     8   ar
     5     8     9   ar
     6     9     1    1
     7     1     2   ar
     8     2    20    1
     9    20    21    1
    10    21    22    1
    11    22    23   ar
    12    23    24   ar
    13    24    27    1
    14    27    28   ar
    15    28    29   ar
    16    29    30   ar
    17    30    31    1
    18    30    32   ar
    19    32    33   ar
    20    24    25   ar
    21    25    26   ar
    22     2     3   ar
    23     3     4   ar
    24     4     5   ar
    25     5    14    1
    26    14    15   ar
    27    15    16   ar
    28    16    17   ar
    29    17    18   ar
    30    18    19   ar
    31     9    10   ar
    32    10    11   ar
    33    11     6   ar
    34     5     1   ar
    35    19    14   ar
    36    26    22   ar
    37    33    27   ar
@<TRIPOS>MOLECULE
*****
 33 37 0 0 0
SMALL
GASTEIGER

@<TRIPOS>ATOM
      1 N          62.7278   87.6323   11.5520 N.ar    1  UNL1       -0.2690
      2 C          63.1431   88.8817   12.2707 C.ar    1  UNL1        0.1975
      3 N          62.7697   90.0551   11.4141 N.ar    1  UNL1       -0.1218
      4 N          62.1236   89.5309   10.1660 N.ar    1  UNL1       -0.1279
      5 C          62.0977   88.0335   10.2513 C.ar    1  UNL1        0.1707
      6 C          63.2758   83.4200   13.0375 C.ar    1  UNL1        0.1388
      7 C          62.5722   83.6710   11.7368 C.ar    1  UNL1        0.0384
      8 C          62.3895   85.0751   11.2416 C.ar    1  UNL1        0.0207
      9 C          62.9105   86.2282   12.0472 C.ar    1  UNL1        0.0674
     10 C          63.6141   85.9772   13.3479 C.ar    1  UNL1        0.0207
     11 C          63.7968   84.5731   13.8430 C.ar    1  UNL1        0.0384
     12 C          62.2739   81.1040   13.6559 C.3     1  UNL1        0.2525
     13 O          63.4585   82.0159   13.5326 O.3     1  UNL1       -0.4714
     14 C          61.5397   87.1011    9.2172 C.ar    1  UNL1        0.0394
     15 C          62.4486   86.1503    8.4961 C.ar    1  UNL1        0.0237
     16 C          61.8906   85.2179    7.4620 C.ar    1  UNL1        0.0990
     17 N          60.4238   85.2362    7.1491 N.ar    1  UNL1       -0.2423
     18 C          59.5149   86.1869    7.8702 C.ar    1  UNL1        0.0990
     19 C          60.0729   87.1194    8.9043 C.ar    1  UNL1        0.0237
     20 S          63.8140   88.9464   13.6107 S.3     1  UNL1       -0.0653
     21 C          64.0601   90.2744   14.2630 C.3     1  UNL1        0.1528
     22 C          65.1167   91.1915   13.7221 C.ar    1  UNL1        0.2480
     23 N          64.9755   92.0949   12.5330 N.ar    1  UNL1       -0.1900
     24 C          66.2715   92.8279   12.3513 C.ar    1  UNL1        0.2033
     25 N          67.2138   92.3774   13.4280 N.ar    1  UNL1       -0.0560
     26 O          66.5000   91.3660   14.2753 O.2     1  UNL1       -0.3361
     27 C          66.5726   93.8345   11.2808 C.ar    1  UNL1        0.0391
     28 C          66.2326   95.2800   11.4935 C.ar    1  UNL1        0.0028
     29 C          66.5337   96.2866   10.4230 C.ar    1  UNL1       -0.0042
     30 C          67.1746   95.8479    9.1398 C.ar    1  UNL1       -0.0218
     31 C          67.4757   96.8545    8.0692 C.3     1  UNL1        0.0310
     32 C          67.5146   94.4025    8.9271 C.ar    1  UNL1       -0.0042
     33 C          67.2136   93.3958    9.9976 C.ar    1  UNL1        0.0028
@<TRIPOS>BOND
     1    12    13    1
     2    13     6    1
     3     6     7   ar
     4     7     8   ar
     5     8     9   ar
     6     9     1    1
     7     1     2   ar
     8     2    20    1
     9    20    21    1
    10    21    22    1
    11    22    23   ar
    12    23    24   ar
    13    24    27    1
    14    27    28   ar
    15    28    29   ar
    16    29    30   ar
    17    30    31    1
    18    30    32   ar
    19    32    33   ar
    20    24    25   ar
    21    25    26   ar
    22     2     3   ar
    23     3     4   ar
    24     4     5   ar
    25     5    14    1
    26    14    15   ar
    27    15    16   ar
    28    16    17   ar
    29    17    18   ar
    30    18    19   ar
    31     9    10   ar
    32    10    11   ar
    33    11     6   ar
    34     5     1   ar
    35    19    14   ar
    36    26    22   ar
    37    33    27   ar
@<TRIPOS>MOLECULE
*****
 33 37 0 0 0
SMALL
GASTEIGER

@<TRIPOS>ATOM
      1 N          62.5218   86.6716   10.8741 N.ar    1  UNL1       -0.2690
      2 C          62.5606   88.1266   11.2367 C.ar    1  UNL1        0.1975
      3 N          63.0369   88.2384   12.6547 N.ar    1  UNL1       -0.1218
      4 N          63.2925   86.8525   13.1684 N.ar    1  UNL1       -0.1279
      5 C          62.9741   85.8842   12.0680 C.ar    1  UNL1        0.1707
      6 C          61.2684   84.9681    6.9021 C.ar    1  UNL1        0.1388
      7 C          62.6914   84.8385    7.3583 C.ar    1  UNL1        0.0384
      8 C          63.1092   85.4063    8.6823 C.ar    1  UNL1        0.0207
      9 C          62.1040   86.1038    9.5501 C.ar    1  UNL1        0.0674
     10 C          60.6810   86.2334    9.0938 C.ar    1  UNL1        0.0207
     11 C          60.2632   85.6655    7.7698 C.ar    1  UNL1        0.0384
     12 C          61.8841   84.0835    4.5381 C.3     1  UNL1        0.2525
     13 O          60.8506   84.4002    5.5781 O.3     1  UNL1       -0.4714
     14 C          63.0881   84.3907   12.1475 C.ar    1  UNL1        0.0394
     15 C          63.8845   83.6434   11.1190 C.ar    1  UNL1        0.0237
     16 C          63.9985   82.1499   11.1985 C.ar    1  UNL1        0.0990
     17 N          63.3162   81.4035   12.3064 N.ar    1  UNL1       -0.2423
     18 C          62.5199   82.1507   13.3347 C.ar    1  UNL1        0.0990
     19 C          62.4059   83.6443   13.2552 C.ar    1  UNL1        0.0237
     20 S          62.1884   89.2692   10.3390 S.3     1  UNL1       -0.0653
     21 C          62.1698   90.6697   10.8759 C.3     1  UNL1        0.1528
     22 C          63.4571   91.3574   11.2221 C.ar    1  UNL1        0.2480
     23 N          64.2024   91.2328   12.5179 N.ar    1  UNL1       -0.1900
     24 C          65.4310   92.0888   12.4301 C.ar    1  UNL1        0.2033
     25 N          65.4451   92.7424   11.0800 N.ar    1  UNL1       -0.0560
     26 O          64.2251   92.2903   10.3335 O.2     1  UNL1       -0.3361
     27 C          66.4642   92.2610   13.5038 C.ar    1  UNL1        0.0391
     28 C          67.9059   91.9676   13.2113 C.ar    1  UNL1        0.0028
     29 C          68.9391   92.1398   14.2850 C.ar    1  UNL1       -0.0042
     30 C          68.5307   92.6055   15.6511 C.ar    1  UNL1       -0.0218
     31 C          69.5638   92.7777   16.7249 C.3     1  UNL1        0.0310
     32 C          67.0890   92.8990   15.9435 C.ar    1  UNL1       -0.0042
     33 C          66.0558   92.7267   14.8699 C.ar    1  UNL1        0.0028
@<TRIPOS>BOND
     1    12    13    1
     2    13     6    1
     3     6     7   ar
     4     7     8   ar
     5     8     9   ar
     6     9     1    1
     7     1     2   ar
     8     2    20    1
     9    20    21    1
    10    21    22    1
    11    22    23   ar
    12    23    24   ar
    13    24    27    1
    14    27    28   ar
    15    28    29   ar
    16    29    30   ar
    17    30    31    1
    18    30    32   ar
    19    32    33   ar
    20    24    25   ar
    21    25    26   ar
    22     2     3   ar
    23     3     4   ar
    24     4     5   ar
    25     5    14    1
    26    14    15   ar
    27    15    16   ar
    28    16    17   ar
    29    17    18   ar
    30    18    19   ar
    31     9    10   ar
    32    10    11   ar
    33    11     6   ar
    34     5     1   ar
    35    19    14   ar
    36    26    22   ar
    37    33    27   ar
@<TRIPOS>MOLECULE
*****
 33 37 0 0 0
SMALL
GASTEIGER

@<TRIPOS>ATOM
      1 N          62.9441   85.3101   11.8795 N.ar    1  UNL1       -0.2690
      2 C          63.4121   86.0893   13.0727 C.ar    1  UNL1        0.1975
      3 N          63.2559   87.5488   12.7636 N.ar    1  UNL1       -0.1218
      4 N          62.6914   87.6716   11.3793 N.ar    1  UNL1       -0.1279
      5 C          62.4987   86.2880   10.8329 C.ar    1  UNL1        0.1707
      6 C          62.8864   80.8260   11.5053 C.ar    1  UNL1        0.1388
      7 C          62.2004   81.4910   12.6616 C.ar    1  UNL1        0.0384
      8 C          62.2196   82.9857   12.7863 C.ar    1  UNL1        0.0207
      9 C          62.9248   83.8154   11.7547 C.ar    1  UNL1        0.0674
     10 C          63.6109   83.1504   10.5984 C.ar    1  UNL1        0.0207
     11 C          63.5917   81.6557   10.4737 C.ar    1  UNL1        0.0384
     12 C          62.8490   78.6921   10.0237 C.3     1  UNL1        0.2525
     13 O          62.8672   79.3313   11.3805 O.3     1  UNL1       -0.4714
     14 C          61.9558   85.9429    9.4778 C.ar    1  UNL1        0.0394
     15 C          60.5327   86.2701    9.1344 C.ar    1  UNL1        0.0237
     16 C          59.9898   85.9250    7.7793 C.ar    1  UNL1        0.0990
     17 N          60.8700   85.2528    6.7677 N.ar    1  UNL1       -0.2423
     18 C          62.2930   84.9256    7.1111 C.ar    1  UNL1        0.0990
     19 C          62.8358   85.2707    8.4662 C.ar    1  UNL1        0.0237
     20 S          63.9431   85.5107   14.3507 S.3     1  UNL1       -0.0653
     21 C          63.9231   86.3269   15.6089 C.3     1  UNL1        0.1528
     22 C          63.9315   87.8249   15.5314 C.ar    1  UNL1        0.2480
     23 N          64.6665   88.6512   14.5179 N.ar    1  UNL1       -0.1900
     24 C          64.3956   90.0965   14.8138 C.ar    1  UNL1        0.2033
     25 N          63.4932   90.1636   16.0102 N.ar    1  UNL1       -0.0560
     26 O          63.2064   88.7596   16.4537 O.2     1  UNL1       -0.3361
     27 C          64.9328   91.2691   14.0479 C.ar    1  UNL1        0.0391
     28 C          65.8729   92.2313   14.7115 C.ar    1  UNL1        0.0028
     29 C          66.4100   93.4039   13.9456 C.ar    1  UNL1       -0.0042
     30 C          66.0071   93.6141   12.5161 C.ar    1  UNL1       -0.0218
     31 C          66.5441   94.7866   11.7501 C.3     1  UNL1        0.0310
     32 C          65.0669   92.6519   11.8525 C.ar    1  UNL1       -0.0042
     33 C          64.5298   91.4793   12.6185 C.ar    1  UNL1        0.0028
@<TRIPOS>BOND
     1    12    13    1
     2    13     6    1
     3     6     7   ar
     4     7     8   ar
     5     8     9   ar
     6     9     1    1
     7     1     2   ar
     8     2    20    1
     9    20    21    1
    10    21    22    1
    11    22    23   ar
    12    23    24   ar
    13    24    27    1
    14    27    28   ar
    15    28    29   ar
    16    29    30   ar
    17    30    31    1
    18    30    32   ar
    19    32    33   ar
    20    24    25   ar
    21    25    26   ar
    22     2     3   ar
    23     3     4   ar
    24     4     5   ar
    25     5    14    1
    26    14    15   ar
    27    15    16   ar
    28    16    17   ar
    29    17    18   ar
    30    18    19   ar
    31     9    10   ar
    32    10    11   ar
    33    11     6   ar
    34     5     1   ar
    35    19    14   ar
    36    26    22   ar
    37    33    27   ar
@<TRIPOS>MOLECULE
*****
 33 37 0 0 0
SMALL
GASTEIGER

@<TRIPOS>ATOM
      1 N          61.0222   87.7485    9.1915 N.ar    1  UNL1       -0.2690
      2 C          60.0543   88.1023    8.1015 C.ar    1  UNL1        0.1975
      3 N          59.6620   86.8354    7.4007 N.ar    1  UNL1       -0.1218
      4 N          60.3875   85.6986    8.0575 N.ar    1  UNL1       -0.1279
      5 C          61.2281   86.2630    9.1643 C.ar    1  UNL1        0.1707
      6 C          62.9667   90.6367   12.0423 C.ar    1  UNL1        0.1388
      7 C          63.4233   90.5695   10.6151 C.ar    1  UNL1        0.0384
      8 C          62.7752   89.6068    9.6648 C.ar    1  UNL1        0.0207
      9 C          61.6704   88.7113   10.1417 C.ar    1  UNL1        0.0674
     10 C          61.2138   88.7785   11.5689 C.ar    1  UNL1        0.0207
     11 C          61.8620   89.7412   12.5192 C.ar    1  UNL1        0.0384
     12 C          65.0576   91.9703   12.8166 C.3     1  UNL1        0.2525
     13 O          63.6149   91.5995   12.9926 O.3     1  UNL1       -0.4714
     14 C          62.1183   85.4793   10.0826 C.ar    1  UNL1        0.0394
     15 C          63.1423   84.5416    9.5149 C.ar    1  UNL1        0.0237
     16 C          64.0325   83.7579   10.4332 C.ar    1  UNL1        0.0990
     17 N          63.8989   83.9119   11.9193 N.ar    1  UNL1       -0.2423
     18 C          62.8750   84.8496   12.4870 C.ar    1  UNL1        0.0990
     19 C          61.9847   85.6333   11.5686 C.ar    1  UNL1        0.0237
     20 S          59.5647   89.4809    7.7704 S.3     1  UNL1       -0.0653
     21 C          58.6840   89.6973    6.5757 C.3     1  UNL1        0.1528
     22 C          59.0344   90.7502    5.5664 C.ar    1  UNL1        0.2480
     23 N          60.3288   90.8559    4.8158 N.ar    1  UNL1       -0.1900
     24 C          60.2464   92.0532    3.9160 C.ar    1  UNL1        0.2033
     25 N          58.9010   92.6875    4.1104 N.ar    1  UNL1       -0.0560
     26 O          58.1520   91.8821    5.1304 O.2     1  UNL1       -0.3361
     27 C          61.3206   92.5322    2.9851 C.ar    1  UNL1        0.0391
     28 C          62.6773   91.8928    3.0131 C.ar    1  UNL1        0.0028
     29 C          63.7515   92.3719    2.0823 C.ar    1  UNL1       -0.0042
     30 C          63.4692   93.4903    1.1235 C.ar    1  UNL1       -0.0218
     31 C          64.5434   93.9694    0.1926 C.3     1  UNL1        0.0310
     32 C          62.1126   94.1297    1.0955 C.ar    1  UNL1       -0.0042
     33 C          61.0383   93.6507    2.0263 C.ar    1  UNL1        0.0028
@<TRIPOS>BOND
     1    12    13    1
     2    13     6    1
     3     6     7   ar
     4     7     8   ar
     5     8     9   ar
     6     9     1    1
     7     1     2   ar
     8     2    20    1
     9    20    21    1
    10    21    22    1
    11    22    23   ar
    12    23    24   ar
    13    24    27    1
    14    27    28   ar
    15    28    29   ar
    16    29    30   ar
    17    30    31    1
    18    30    32   ar
    19    32    33   ar
    20    24    25   ar
    21    25    26   ar
    22     2     3   ar
    23     3     4   ar
    24     4     5   ar
    25     5    14    1
    26    14    15   ar
    27    15    16   ar
    28    16    17   ar
    29    17    18   ar
    30    18    19   ar
    31     9    10   ar
    32    10    11   ar
    33    11     6   ar
    34     5     1   ar
    35    19    14   ar
    36    26    22   ar
    37    33    27   ar
