@<TRIPOS>MOLECULE
*****
 28 31 0 0 0
SMALL
GASTEIGER

@<TRIPOS>ATOM
      1 N          63.7165   87.8662   13.2514 N.ar    1  UNL1       -0.2064
      2 C          64.6866   88.5660   14.1565 C.ar    1  UNL1        0.1144
      3 C          64.8098   89.9874   13.6936 C.ar    1  UNL1        0.0686
      4 C          63.9157   90.1662   12.5025 C.ar    1  UNL1        0.0324
      5 C          63.6295   91.3533   11.6314 C.ar    1  UNL1        0.0028
      6 C          62.6677   91.2294   10.4871 C.ar    1  UNL1        0.0001
      7 C          61.9920   89.9184   10.2139 C.ar    1  UNL1        0.0015
      8 C          62.2781   88.7313   11.0849 C.ar    1  UNL1        0.0190
      9 C          63.2400   88.8552   12.2292 C.ar    1  UNL1        0.0838
     10 N          65.6751   91.0446   14.3130 N.pl3   1  UNL1       -0.3034
     11 C          65.2759   91.6722   15.6157 C.3     1  UNL1        0.1082
     12 C          66.1412   92.7294   16.2351 C.3     1  UNL1        0.0938
     13 N          67.4056   93.1589   15.5519 N.3     1  UNL1       -0.2686
     14 C          68.2709   94.2161   16.1714 C.3     1  UNL1        0.0897
     15 C          67.8047   92.5313   14.2493 C.3     1  UNL1        0.0938
     16 C          66.9394   91.4741   13.6299 C.3     1  UNL1        0.1082
     17 S          63.2965   86.4296   13.3511 S.O2    1  UNL1        0.0860
     18 O          63.8126   86.3763   14.7584 O.2     1  UNL1       -0.1476
     19 O          62.7803   86.4829   11.9437 O.2     1  UNL1       -0.1476
     20 C          62.0363   82.1200   13.6500 C.ar    1  UNL1       -0.0224
     21 C          62.1213   82.9641   14.8871 C.ar    1  UNL1       -0.0029
     22 C          62.5414   84.4006   14.7874 C.ar    1  UNL1        0.0201
     23 C          62.8764   84.9931   13.4507 C.ar    1  UNL1        0.1277
     24 C          62.7914   84.1490   12.2137 C.ar    1  UNL1        0.0201
     25 C          62.3714   82.7125   12.3133 C.ar    1  UNL1       -0.0029
     26 C          60.2257   80.3377   14.1932 C.3     1  UNL1        0.0047
     27 C          61.6163   80.6835   13.7496 C.3     1  UNL1        0.0224
     28 C          62.5868   79.5927   13.4056 C.3     1  UNL1        0.0047
@<TRIPOS>BOND
     1    26    27    1
     2    27    28    1
     3    27    20    1
     4    20    21   ar
     5    21    22   ar
     6    22    23   ar
     7    23    17    1
     8    17    18    2
     9    17    19    2
    10    17     1    1
    11     1     2   ar
    12     2     3   ar
    13     3    10    1
    14    10    11    1
    15    11    12    1
    16    12    13    1
    17    13    14    1
    18    13    15    1
    19    15    16    1
    20     3     4   ar
    21     4     5   ar
    22     5     6   ar
    23     6     7   ar
    24     7     8   ar
    25     8     9   ar
    26    23    24   ar
    27    24    25   ar
    28    25    20   ar
    29     9     1   ar
    30    16    10    1
    31     9     4   ar
@<TRIPOS>MOLECULE
*****
 28 31 0 0 0
SMALL
GASTEIGER

@<TRIPOS>ATOM
      1 N          62.8467   87.0203   12.1023 N.ar    1  UNL1       -0.2064
      2 C          63.8896   87.8571   12.7821 C.ar    1  UNL1        0.1144
      3 C          63.5413   89.2996   12.5635 C.ar    1  UNL1        0.0686
      4 C          62.2831   89.3544   11.7486 C.ar    1  UNL1        0.0324
      5 C          61.4729   90.5049   11.2294 C.ar    1  UNL1        0.0028
      6 C          60.2333   90.2468   10.4251 C.ar    1  UNL1        0.0001
      7 C          59.8040   88.8381   10.1401 C.ar    1  UNL1        0.0015
      8 C          60.6143   87.6875   10.6593 C.ar    1  UNL1        0.0190
      9 C          61.8538   87.9457   11.4636 C.ar    1  UNL1        0.0838
     10 N          64.3152   90.4802   13.0707 N.pl3   1  UNL1       -0.3034
     11 C          64.7093   90.5537   14.5162 C.3     1  UNL1        0.1082
     12 C          65.4833   91.7343   15.0234 C.3     1  UNL1        0.0938
     13 N          65.8632   92.8413   14.0852 N.3     1  UNL1       -0.2686
     14 C          66.6372   94.0219   14.5924 C.3     1  UNL1        0.0897
     15 C          65.4691   92.7677   12.6398 C.3     1  UNL1        0.0938
     16 C          64.6952   91.5871   12.1326 C.3     1  UNL1        0.1082
     17 S          62.8041   85.5213   12.0673 S.O2    1  UNL1        0.0860
     18 O          62.7965   85.5565   10.5679 O.2     1  UNL1       -0.1476
     19 O          62.8117   85.4861   13.5669 O.2     1  UNL1       -0.1476
     20 C          62.6763   81.0243   11.9626 C.ar    1  UNL1       -0.0224
     21 C          63.1660   81.7888   10.7685 C.ar    1  UNL1       -0.0029
     22 C          63.2086   83.2877   10.8035 C.ar    1  UNL1        0.0201
     23 C          62.7615   84.0223   12.0325 C.ar    1  UNL1        0.1277
     24 C          62.2718   83.2579   13.2266 C.ar    1  UNL1        0.0201
     25 C          62.2292   81.7590   13.1916 C.ar    1  UNL1       -0.0029
     26 C          62.7766   78.8012   10.6219 C.3     1  UNL1        0.0047
     27 C          62.6337   79.5254   11.9278 C.3     1  UNL1        0.0224
     28 C          62.4482   78.7505   13.1986 C.3     1  UNL1        0.0047
@<TRIPOS>BOND
     1    26    27    1
     2    27    28    1
     3    27    20    1
     4    20    21   ar
     5    21    22   ar
     6    22    23   ar
     7    23    17    1
     8    17    18    2
     9    17    19    2
    10    17     1    1
    11     1     2   ar
    12     2     3   ar
    13     3    10    1
    14    10    11    1
    15    11    12    1
    16    12    13    1
    17    13    14    1
    18    13    15    1
    19    15    16    1
    20     3     4   ar
    21     4     5   ar
    22     5     6   ar
    23     6     7   ar
    24     7     8   ar
    25     8     9   ar
    26    23    24   ar
    27    24    25   ar
    28    25    20   ar
    29     9     1   ar
    30    16    10    1
    31     9     4   ar
@<TRIPOS>MOLECULE
*****
 28 31 0 0 0
SMALL
GASTEIGER

@<TRIPOS>ATOM
      1 N          63.6697   86.1280   13.9507 N.ar    1  UNL1       -0.2064
      2 C          64.2272   87.3433   13.2709 C.ar    1  UNL1        0.1144
      3 C          64.2286   88.4691   14.2621 C.ar    1  UNL1        0.0686
      4 C          63.6720   87.9496   15.5545 C.ar    1  UNL1        0.0324
      5 C          63.4351   88.6072   16.8817 C.ar    1  UNL1        0.0028
      6 C          62.8527   87.8178   18.0164 C.ar    1  UNL1        0.0001
      7 C          62.5073   86.3709   17.8240 C.ar    1  UNL1        0.0015
      8 C          62.7442   85.7133   16.4968 C.ar    1  UNL1        0.0190
      9 C          63.3265   86.5027   15.3621 C.ar    1  UNL1        0.0838
     10 N          64.7033   89.8688   14.0059 N.pl3   1  UNL1       -0.3034
     11 C          64.1722   90.6380   12.8326 C.3     1  UNL1        0.1082
     12 C          64.6469   92.0376   12.5764 C.3     1  UNL1        0.0938
     13 N          65.6527   92.6681   13.4934 N.3     1  UNL1       -0.2686
     14 C          66.1274   94.0678   13.2372 C.3     1  UNL1        0.0897
     15 C          66.1838   91.8990   14.6665 C.3     1  UNL1        0.0938
     16 C          65.7091   90.4993   14.9227 C.3     1  UNL1        0.1082
     17 S          63.4873   84.7754   13.3285 S.O2    1  UNL1        0.0860
     18 O          64.7422   84.2984   13.9974 O.2     1  UNL1       -0.1476
     19 O          62.2323   85.2523   12.6596 O.2     1  UNL1       -0.1476
     20 C          62.9398   80.7175   11.4618 C.ar    1  UNL1       -0.0224
     21 C          62.5272   80.9502   12.8850 C.ar    1  UNL1       -0.0029
     22 C          62.7097   82.3028   13.5072 C.ar    1  UNL1        0.0201
     23 C          63.3048   83.4227   12.7062 C.ar    1  UNL1        0.1277
     24 C          63.7174   83.1900   11.2830 C.ar    1  UNL1        0.0201
     25 C          63.5349   81.8375   10.6608 C.ar    1  UNL1       -0.0029
     26 C          62.8029   79.2134    9.3478 C.3     1  UNL1        0.0047
     27 C          62.7574   79.3650   10.8395 C.3     1  UNL1        0.0224
     28 C          62.5294   78.1639   11.7087 C.3     1  UNL1        0.0047
@<TRIPOS>BOND
     1    26    27    1
     2    27    28    1
     3    27    20    1
     4    20    21   ar
     5    21    22   ar
     6    22    23   ar
     7    23    17    1
     8    17    18    2
     9    17    19    2
    10    17     1    1
    11     1     2   ar
    12     2     3   ar
    13     3    10    1
    14    10    11    1
    15    11    12    1
    16    12    13    1
    17    13    14    1
    18    13    15    1
    19    15    16    1
    20     3     4   ar
    21     4     5   ar
    22     5     6   ar
    23     6     7   ar
    24     7     8   ar
    25     8     9   ar
    26    23    24   ar
    27    24    25   ar
    28    25    20   ar
    29     9     1   ar
    30    16    10    1
    31     9     4   ar
@<TRIPOS>MOLECULE
*****
 28 31 0 0 0
SMALL
GASTEIGER

@<TRIPOS>ATOM
      1 N          64.0236   88.2376   14.1069 N.ar    1  UNL1       -0.2064
      2 C          63.9920   86.9202   13.3903 C.ar    1  UNL1        0.1144
      3 C          63.5309   85.8748   14.3621 C.ar    1  UNL1        0.0686
      4 C          63.2776   86.5461   15.6795 C.ar    1  UNL1        0.0324
      5 C          62.8090   86.0162   17.0022 C.ar    1  UNL1        0.0028
      6 C          62.6449   86.9467   18.1672 C.ar    1  UNL1        0.0001
      7 C          62.9494   88.4070   18.0094 C.ar    1  UNL1        0.0015
      8 C          63.4180   88.9368   16.6867 C.ar    1  UNL1        0.0190
      9 C          63.5821   88.0063   15.5217 C.ar    1  UNL1        0.0838
     10 N          63.3542   84.4145   14.0683 N.pl3   1  UNL1       -0.3034
     11 C          64.2904   83.7209   13.1235 C.3     1  UNL1        0.1082
     12 C          64.1137   82.2606   12.8296 C.3     1  UNL1        0.0938
     13 N          63.0009   81.4939   13.4807 N.3     1  UNL1       -0.2686
     14 C          62.8242   80.0336   13.1869 C.3     1  UNL1        0.0897
     15 C          62.0648   82.1875   14.4255 C.3     1  UNL1        0.0938
     16 C          62.2415   83.6478   14.7193 C.3     1  UNL1        0.1082
     17 S          64.4260   89.5549   13.5131 S.O2    1  UNL1        0.0860
     18 O          65.3893   89.7698   14.6425 O.2     1  UNL1       -0.1476
     19 O          63.4627   89.3400   12.3836 O.2     1  UNL1       -0.1476
     20 C          65.6331   93.5069   11.7311 C.ar    1  UNL1       -0.0224
     21 C          64.6954   92.6035   10.9865 C.ar    1  UNL1       -0.0029
     22 C          64.2930   91.2862   11.5805 C.ar    1  UNL1        0.0201
     23 C          64.8284   90.8723   12.9191 C.ar    1  UNL1        0.1277
     24 C          65.7662   91.7756   13.6638 C.ar    1  UNL1        0.0201
     25 C          66.1685   93.0929   13.0698 C.ar    1  UNL1       -0.0029
     26 C          66.1345   96.0409   12.0090 C.3     1  UNL1        0.0047
     27 C          66.0355   94.8242   11.1373 C.3     1  UNL1        0.0224
     28 C          66.3389   94.9249    9.6717 C.3     1  UNL1        0.0047
@<TRIPOS>BOND
     1    26    27    1
     2    27    28    1
     3    27    20    1
     4    20    21   ar
     5    21    22   ar
     6    22    23   ar
     7    23    17    1
     8    17    18    2
     9    17    19    2
    10    17     1    1
    11     1     2   ar
    12     2     3   ar
    13     3    10    1
    14    10    11    1
    15    11    12    1
    16    12    13    1
    17    13    14    1
    18    13    15    1
    19    15    16    1
    20     3     4   ar
    21     4     5   ar
    22     5     6   ar
    23     6     7   ar
    24     7     8   ar
    25     8     9   ar
    26    23    24   ar
    27    24    25   ar
    28    25    20   ar
    29     9     1   ar
    30    16    10    1
    31     9     4   ar
@<TRIPOS>MOLECULE
*****
 28 31 0 0 0
SMALL
GASTEIGER

@<TRIPOS>ATOM
      1 N          58.5859   94.4333   -2.9312 N.ar    1  UNL1       -0.2064
      2 C          59.6222   94.5573   -4.0085 C.ar    1  UNL1        0.1144
      3 C          60.9259   94.0613   -3.4568 C.ar    1  UNL1        0.0686
      4 C          60.6953   93.6307   -2.0386 C.ar    1  UNL1        0.0324
      5 C          61.6153   93.0590   -1.0010 C.ar    1  UNL1        0.0028
      6 C          61.0892   92.7172    0.3614 C.ar    1  UNL1        0.0001
      7 C          59.6430   92.9471    0.6863 C.ar    1  UNL1        0.0015
      8 C          58.7229   93.5189   -0.3512 C.ar    1  UNL1        0.0190
      9 C          59.2490   93.8607   -1.7137 C.ar    1  UNL1        0.0838
     10 N          62.2310   94.0056   -4.1940 N.pl3   1  UNL1       -0.3034
     11 C          62.5519   95.0416   -5.2303 C.3     1  UNL1        0.1082
     12 C          63.8571   94.9859   -5.9675 C.3     1  UNL1        0.0938
     13 N          64.8414   93.8942   -5.6684 N.3     1  UNL1       -0.2686
     14 C          66.1466   93.8385   -6.4056 C.3     1  UNL1        0.0897
     15 C          64.5205   92.8583   -4.6321 C.3     1  UNL1        0.0938
     16 C          63.2153   92.9140   -3.8950 C.3     1  UNL1        0.1082
     17 S          57.1401   94.8150   -3.0503 S.O2    1  UNL1        0.0860
     18 O          56.7910   93.3922   -3.3722 O.2     1  UNL1       -0.1476
     19 O          57.4892   96.2379   -2.7285 O.2     1  UNL1       -0.1476
     20 C          52.8030   95.9603   -3.4080 C.ar    1  UNL1       -0.0224
     21 C          53.6778   95.9456   -4.6264 C.ar    1  UNL1       -0.0029
     22 C          55.1235   95.5638   -4.5072 C.ar    1  UNL1        0.0201
     23 C          55.6944   95.1967   -3.1695 C.ar    1  UNL1        0.1277
     24 C          54.8196   95.2114   -1.9511 C.ar    1  UNL1        0.0201
     25 C          53.3740   95.5932   -2.0703 C.ar    1  UNL1       -0.0029
     26 C          50.6159   96.8554   -2.3284 C.3     1  UNL1        0.0047
     27 C          51.3573   96.3420   -3.5272 C.3     1  UNL1        0.0224
     28 C          50.6529   96.2104   -4.8449 C.3     1  UNL1        0.0047
@<TRIPOS>BOND
     1    26    27    1
     2    27    28    1
     3    27    20    1
     4    20    21   ar
     5    21    22   ar
     6    22    23   ar
     7    23    17    1
     8    17    18    2
     9    17    19    2
    10    17     1    1
    11     1     2   ar
    12     2     3   ar
    13     3    10    1
    14    10    11    1
    15    11    12    1
    16    12    13    1
    17    13    14    1
    18    13    15    1
    19    15    16    1
    20     3     4   ar
    21     4     5   ar
    22     5     6   ar
    23     6     7   ar
    24     7     8   ar
    25     8     9   ar
    26    23    24   ar
    27    24    25   ar
    28    25    20   ar
    29     9     1   ar
    30    16    10    1
    31     9     4   ar
@<TRIPOS>MOLECULE
*****
 28 31 0 0 0
SMALL
GASTEIGER

@<TRIPOS>ATOM
      1 N          57.7872   94.5234   -2.8984 N.ar    1  UNL1       -0.2064
      2 C          56.3996   94.9168   -2.4862 C.ar    1  UNL1        0.1144
      3 C          55.5994   95.1651   -3.7304 C.ar    1  UNL1        0.0686
      4 C          56.4924   94.9252   -4.9115 C.ar    1  UNL1        0.0324
      5 C          56.2489   95.0166   -6.3888 C.ar    1  UNL1        0.0028
      6 C          57.3577   94.7115   -7.3519 C.ar    1  UNL1        0.0001
      7 C          58.7098   94.3149   -6.8377 C.ar    1  UNL1        0.0015
      8 C          58.9533   94.2235   -5.3604 C.ar    1  UNL1        0.0190
      9 C          57.8445   94.5286   -4.3973 C.ar    1  UNL1        0.0838
     10 N          54.1590   95.5804   -3.7840 N.pl3   1  UNL1       -0.3034
     11 C          53.3200   95.5398   -2.5412 C.3     1  UNL1        0.1082
     12 C          51.8796   95.9551   -2.5949 C.3     1  UNL1        0.0938
     13 N          51.2782   96.4109   -3.8913 N.3     1  UNL1       -0.2686
     14 C          49.8379   96.8262   -3.9449 C.3     1  UNL1        0.0897
     15 C          52.1172   96.4514   -5.1340 C.3     1  UNL1        0.0938
     16 C          53.5576   96.0361   -5.0803 C.3     1  UNL1        0.1082
     17 S          58.9188   94.1844   -1.9740 S.O2    1  UNL1        0.0860
     18 O          59.2379   95.6429   -1.8297 O.2     1  UNL1       -0.1476
     19 O          58.5997   92.7259   -2.1184 O.2     1  UNL1       -0.1476
     20 C          62.3137   93.1672    0.7991 C.ar    1  UNL1       -0.0224
     21 C          62.2082   94.5455    0.2168 C.ar    1  UNL1       -0.0029
     22 C          61.0766   94.8845   -0.7076 C.ar    1  UNL1        0.0201
     23 C          60.0505   93.8453   -1.0496 C.ar    1  UNL1        0.1277
     24 C          60.1560   92.4670   -0.4673 C.ar    1  UNL1        0.0201
     25 C          61.2875   92.1280    0.4570 C.ar    1  UNL1       -0.0029
     26 C          63.2824   91.7364    2.7393 C.3     1  UNL1        0.0047
     27 C          63.4453   92.8281    1.7235 C.3     1  UNL1        0.0224
     28 C          64.7397   93.5805    1.6322 C.3     1  UNL1        0.0047
@<TRIPOS>BOND
     1    26    27    1
     2    27    28    1
     3    27    20    1
     4    20    21   ar
     5    21    22   ar
     6    22    23   ar
     7    23    17    1
     8    17    18    2
     9    17    19    2
    10    17     1    1
    11     1     2   ar
    12     2     3   ar
    13     3    10    1
    14    10    11    1
    15    11    12    1
    16    12    13    1
    17    13    14    1
    18    13    15    1
    19    15    16    1
    20     3     4   ar
    21     4     5   ar
    22     5     6   ar
    23     6     7   ar
    24     7     8   ar
    25     8     9   ar
    26    23    24   ar
    27    24    25   ar
    28    25    20   ar
    29     9     1   ar
    30    16    10    1
    31     9     4   ar
@<TRIPOS>MOLECULE
*****
 28 31 0 0 0
SMALL
GASTEIGER

@<TRIPOS>ATOM
      1 N          63.0231   88.8777   11.3419 N.ar    1  UNL1       -0.2064
      2 C          63.3960   87.6812   12.1661 C.ar    1  UNL1        0.1144
      3 C          62.4614   86.5634   11.8096 C.ar    1  UNL1        0.0686
      4 C          61.5110   87.0691   10.7651 C.ar    1  UNL1        0.0324
      5 C          60.3743   86.4119   10.0398 C.ar    1  UNL1        0.0028
      6 C          59.5848   87.1850    9.0255 C.ar    1  UNL1        0.0001
      7 C          59.9320   88.6154    8.7365 C.ar    1  UNL1        0.0015
      8 C          61.0686   89.2726    9.4617 C.ar    1  UNL1        0.0190
      9 C          61.8581   88.4994   10.4760 C.ar    1  UNL1        0.0838
     10 N          62.4748   85.1824   12.3948 N.pl3   1  UNL1       -0.3034
     11 C          62.5611   83.9865   11.4933 C.3     1  UNL1        0.1082
     12 C          62.5746   82.6055   12.0786 C.3     1  UNL1        0.0938
     13 N          62.5018   82.4202   13.5653 N.3     1  UNL1       -0.2686
     14 C          62.5152   81.0392   14.1506 C.3     1  UNL1        0.0897
     15 C          62.4155   83.6160   14.4668 C.3     1  UNL1        0.0938
     16 C          62.4021   84.9970   13.8815 C.3     1  UNL1        0.1082
     17 S          63.6970   90.2174   11.3773 S.O2    1  UNL1        0.0860
     18 O          63.4125   90.3991    9.9158 O.2     1  UNL1       -0.1476
     19 O          63.9814   90.0357   12.8388 O.2     1  UNL1       -0.1476
     20 C          65.7185   94.2364   11.4836 C.ar    1  UNL1       -0.0224
     21 C          65.0559   93.7632   10.2238 C.ar    1  UNL1       -0.0029
     22 C          64.3821   92.4236   10.1884 C.ar    1  UNL1        0.0201
     23 C          64.3708   91.5571   11.4128 C.ar    1  UNL1        0.1277
     24 C          65.0334   92.0303   12.6726 C.ar    1  UNL1        0.0201
     25 C          65.7072   93.3699   12.7080 C.ar    1  UNL1       -0.0029
     26 C          67.0191   96.1335   10.2756 C.3     1  UNL1        0.0047
     27 C          66.3923   95.5760   11.5192 C.3     1  UNL1        0.0224
     28 C          66.4394   96.3583   12.7981 C.3     1  UNL1        0.0047
@<TRIPOS>BOND
     1    26    27    1
     2    27    28    1
     3    27    20    1
     4    20    21   ar
     5    21    22   ar
     6    22    23   ar
     7    23    17    1
     8    17    18    2
     9    17    19    2
    10    17     1    1
    11     1     2   ar
    12     2     3   ar
    13     3    10    1
    14    10    11    1
    15    11    12    1
    16    12    13    1
    17    13    14    1
    18    13    15    1
    19    15    16    1
    20     3     4   ar
    21     4     5   ar
    22     5     6   ar
    23     6     7   ar
    24     7     8   ar
    25     8     9   ar
    26    23    24   ar
    27    24    25   ar
    28    25    20   ar
    29     9     1   ar
    30    16    10    1
    31     9     4   ar
@<TRIPOS>MOLECULE
*****
 28 31 0 0 0
SMALL
GASTEIGER

@<TRIPOS>ATOM
      1 N          58.2111   94.7279   -3.4376 N.ar    1  UNL1       -0.2064
      2 C          58.6674   94.3473   -2.0603 C.ar    1  UNL1        0.1144
      3 C          60.1370   94.0539   -2.1235 C.ar    1  UNL1        0.0686
      4 C          60.5890   94.2531   -3.5398 C.ar    1  UNL1        0.0324
      5 C          61.9307   94.1090   -4.1949 C.ar    1  UNL1        0.0028
      6 C          62.0820   94.3814   -5.6622 C.ar    1  UNL1        0.0001
      7 C          60.8916   94.7980   -6.4743 C.ar    1  UNL1        0.0015
      8 C          59.5500   94.9421   -5.8192 C.ar    1  UNL1        0.0190
      9 C          59.3987   94.6696   -4.3520 C.ar    1  UNL1        0.0838
     10 N          61.0028   93.6348   -0.9724 N.pl3   1  UNL1       -0.3034
     11 C          62.2313   94.4251   -0.6313 C.3     1  UNL1        0.1082
     12 C          63.0970   94.0060    0.5197 C.3     1  UNL1        0.0938
     13 N          62.7343   92.7967    1.3297 N.3     1  UNL1       -0.2686
     14 C          63.6000   92.3777    2.4807 C.3     1  UNL1        0.0897
     15 C          61.5058   92.0065    0.9885 C.3     1  UNL1        0.0938
     16 C          60.6401   92.4256   -0.1625 C.3     1  UNL1        0.1082
     17 S          56.8126   95.1012   -3.8313 S.O2    1  UNL1        0.0860
     18 O          57.0826   96.5241   -3.4412 O.2     1  UNL1       -0.1476
     19 O          56.5427   93.6782   -4.2214 O.2     1  UNL1       -0.1476
     20 C          52.6173   96.2207   -5.0129 C.ar    1  UNL1       -0.0224
     21 C          53.6377   95.9149   -6.0690 C.ar    1  UNL1       -0.0029
     22 C          55.0361   95.5418   -5.6751 C.ar    1  UNL1        0.0201
     23 C          55.4142   95.4744   -4.2251 C.ar    1  UNL1        0.1277
     24 C          54.3938   95.7802   -3.1690 C.ar    1  UNL1        0.0201
     25 C          52.9955   96.1533   -3.5629 C.ar    1  UNL1       -0.0029
     26 C          50.8791   96.8106   -6.8516 C.3     1  UNL1        0.0047
     27 C          51.2189   96.5939   -5.4067 C.3     1  UNL1        0.0224
     28 C          50.1602   96.7505   -4.3557 C.3     1  UNL1        0.0047
@<TRIPOS>BOND
     1    26    27    1
     2    27    28    1
     3    27    20    1
     4    20    21   ar
     5    21    22   ar
     6    22    23   ar
     7    23    17    1
     8    17    18    2
     9    17    19    2
    10    17     1    1
    11     1     2   ar
    12     2     3   ar
    13     3    10    1
    14    10    11    1
    15    11    12    1
    16    12    13    1
    17    13    14    1
    18    13    15    1
    19    15    16    1
    20     3     4   ar
    21     4     5   ar
    22     5     6   ar
    23     6     7   ar
    24     7     8   ar
    25     8     9   ar
    26    23    24   ar
    27    24    25   ar
    28    25    20   ar
    29     9     1   ar
    30    16    10    1
    31     9     4   ar
@<TRIPOS>MOLECULE
*****
 28 31 0 0 0
SMALL
GASTEIGER

@<TRIPOS>ATOM
      1 N          62.2235   94.2593   -2.4166 N.ar    1  UNL1       -0.2064
      2 C          63.6517   94.4637   -2.8273 C.ar    1  UNL1        0.1144
      3 C          63.6616   94.9343   -4.2515 C.ar    1  UNL1        0.0686
      4 C          62.2396   95.0208   -4.7210 C.ar    1  UNL1        0.0324
      5 C          61.6392   95.4255   -6.0347 C.ar    1  UNL1        0.0028
      6 C          60.1501   95.4131   -6.2143 C.ar    1  UNL1        0.0001
      7 C          59.2613   94.9959   -5.0802 C.ar    1  UNL1        0.0015
      8 C          59.8617   94.5912   -3.7666 C.ar    1  UNL1        0.0190
      9 C          61.3508   94.6036   -3.5870 C.ar    1  UNL1        0.0838
     10 N          64.8796   95.2611   -5.0636 N.pl3   1  UNL1       -0.3034
     11 C          65.6372   96.5292   -4.8024 C.3     1  UNL1        0.1082
     12 C          66.8553   96.8560   -5.6146 C.3     1  UNL1        0.0938
     13 N          67.3157   95.9147   -6.6879 N.3     1  UNL1       -0.2686
     14 C          68.5338   96.2415   -7.5001 C.3     1  UNL1        0.0897
     15 C          66.5582   94.6467   -6.9491 C.3     1  UNL1        0.0938
     16 C          65.3401   94.3199   -6.1369 C.3     1  UNL1        0.1082
     17 S          61.7510   93.7926   -1.0716 S.O2    1  UNL1        0.0860
     18 O          61.4876   95.2138   -0.6709 O.2     1  UNL1       -0.1476
     19 O          62.0144   92.3713   -1.4723 O.2     1  UNL1       -0.1476
     20 C          60.3338   92.3921    2.9633 C.ar    1  UNL1       -0.0224
     21 C          61.7990   92.3949    2.6425 C.ar    1  UNL1       -0.0029
     22 C          62.2714   92.8618    1.2975 C.ar    1  UNL1        0.0201
     23 C          61.2785   93.3258    0.2733 C.ar    1  UNL1        0.1277
     24 C          59.8133   93.3230    0.5942 C.ar    1  UNL1        0.0201
     25 C          59.3409   92.8562    1.9390 C.ar    1  UNL1       -0.0029
     26 C          58.4992   92.3149    4.8013 C.3     1  UNL1        0.0047
     27 C          59.8613   91.9253    4.3082 C.3     1  UNL1        0.0224
     28 C          60.7507   91.0690    5.1600 C.3     1  UNL1        0.0047
@<TRIPOS>BOND
     1    26    27    1
     2    27    28    1
     3    27    20    1
     4    20    21   ar
     5    21    22   ar
     6    22    23   ar
     7    23    17    1
     8    17    18    2
     9    17    19    2
    10    17     1    1
    11     1     2   ar
    12     2     3   ar
    13     3    10    1
    14    10    11    1
    15    11    12    1
    16    12    13    1
    17    13    14    1
    18    13    15    1
    19    15    16    1
    20     3     4   ar
    21     4     5   ar
    22     5     6   ar
    23     6     7   ar
    24     7     8   ar
    25     8     9   ar
    26    23    24   ar
    27    24    25   ar
    28    25    20   ar
    29     9     1   ar
    30    16    10    1
    31     9     4   ar
