@<TRIPOS>MOLECULE
*****
 26 30 0 0 0
SMALL
GASTEIGER

@<TRIPOS>ATOM
      1 C          63.2618   87.3360   12.7255 C.2     1  UNL1        0.3180
      2 N          63.8377   86.9686   14.0609 N.2     1  UNL1       -0.0390
      3 C          63.8406   85.4725   14.1688 C.2     1  UNL1        0.2637
      4 C          64.2918   84.5456   15.2584 C.2     1  UNL1        0.2821
      5 N          64.1690   83.0614   15.0792 N.2     1  UNL1       -0.0268
      6 C          63.5949   82.5041   13.8104 C.2     1  UNL1        0.3760
      7 N          63.3518   81.0967   13.3520 N.2     1  UNL1       -0.0306
      8 C          62.7502   81.1538   11.9791 C.2     1  UNL1        0.2361
      9 C          62.6216   82.5965   11.5890 C.2     1  UNL1        0.0583
     10 C          63.1437   83.4310   12.7208 C.2     1  UNL1        0.1203
     11 C          63.2666   84.9152   12.9000 C.3     1  UNL1        0.2596
     12 N          62.9088   86.0669   12.0080 N.pl3   1  UNL1       -0.1895
     13 C          62.3043   85.9671   10.6389 C.3     1  UNL1        0.1603
     14 C          60.9312   86.4256   10.2457 C.3     1  UNL1        0.0466
     15 C          60.7450   86.1331    8.7864 C.3     1  UNL1        0.0041
     16 C          61.4074   85.5572    7.5700 C.3     1  UNL1        0.0003
     17 C          62.7804   85.0987    7.9631 C.3     1  UNL1        0.0040
     18 C          62.9666   85.3912    9.4224 C.3     1  UNL1        0.0428
     19 C          61.7087   86.0305    9.9313 C.3     1  UNL1        0.0041
     20 C          63.0722   88.7280   12.1999 C.3     1  UNL1        0.2079
     21 N          62.5628   89.8091   13.1064 N.3     1  UNL1       -0.1711
     22 H          62.2684   90.5808   12.5079 H       1  UNL1        0.1491
     23 C          64.3602   90.9775   15.2050 C.3     1  UNL1        0.1957
     24 S          63.4615   90.3933   14.1557 S.O2    1  UNL1        0.0431
     25 O          64.3645   90.9286   13.0842 O.2     1  UNL1       -0.1574
     26 O          62.5585   89.8580   15.2272 O.2     1  UNL1       -0.1574
@<TRIPOS>BOND
     1    23    24    1
     2    24    25    2
     3    24    26    2
     4    24    21    1
     5    21    20    1
     6    20     1    1
     7     1     2    2
     8     2     3    1
     9     3     4    2
    10     4     5    1
    11     5     6    2
    12     6     7    1
    13     7     8    2
    14     8     9    1
    15     9    10    2
    16    10    11    1
    17    11    12    1
    18    13    12    1
    19    13    14    1
    20    15    14    1
    21    15    16    1
    22    16    17    1
    23    18    17    1
    24    18    19    1
    25    12     1    1
    26    18    13    1
    27    11     3    1
    28    19    15    1
    29    10     6    1
    30    21    22    1
@<TRIPOS>MOLECULE
*****
 26 30 0 0 0
SMALL
GASTEIGER

@<TRIPOS>ATOM
      1 C          63.3112   87.4295   12.7406 C.2     1  UNL1        0.3180
      2 N          63.8936   87.0794   14.0778 N.2     1  UNL1       -0.0390
      3 C          63.8738   85.5858   14.2153 C.2     1  UNL1        0.2637
      4 C          64.3204   84.6734   15.3190 C.2     1  UNL1        0.2821
      5 N          64.1723   83.1881   15.1704 N.2     1  UNL1       -0.0268
      6 C          63.5776   82.6152   13.9182 C.2     1  UNL1        0.3760
      7 N          63.3078   81.2032   13.4901 N.2     1  UNL1       -0.0306
      8 C          62.6944   81.2429   12.1219 C.2     1  UNL1        0.2361
      9 C          62.5851   82.6794   11.7043 C.2     1  UNL1        0.0583
     10 C          63.1310   83.5276   12.8145 C.2     1  UNL1        0.1203
     11 C          63.2791   85.0129   12.9631 C.3     1  UNL1        0.2596
     12 N          62.9314   86.1524   12.0517 N.pl3   1  UNL1       -0.1895
     13 C          62.3125   86.0353   10.6903 C.3     1  UNL1        0.1603
     14 C          60.9299   86.4752   10.3095 C.3     1  UNL1        0.0466
     15 C          60.7305   86.1696    8.8546 C.3     1  UNL1        0.0041
     16 C          61.3855   85.5920    7.6350 C.3     1  UNL1        0.0003
     17 C          62.7681   85.1520    8.0158 C.3     1  UNL1        0.0040
     18 C          62.9675   85.4577    9.4707 C.3     1  UNL1        0.0428
     19 C          61.7082   86.0866    9.9892 C.3     1  UNL1        0.0041
     20 C          63.1388   88.8138   12.1892 C.3     1  UNL1        0.2079
     21 N          61.9898   89.6643   12.6434 N.3     1  UNL1       -0.1711
     22 H          61.5545   89.1773   13.4268 H       1  UNL1        0.1491
     23 C          59.7898   90.3609   10.7263 C.3     1  UNL1        0.1957
     24 S          60.8897   90.0126   11.6849 S.O2    1  UNL1        0.0431
     25 O          59.8968   89.3257   12.5748 O.2     1  UNL1       -0.1574
     26 O          61.8828   90.6996   10.7949 O.2     1  UNL1       -0.1574
@<TRIPOS>BOND
     1    23    24    1
     2    24    25    2
     3    24    26    2
     4    24    21    1
     5    21    20    1
     6    20     1    1
     7     1     2    2
     8     2     3    1
     9     3     4    2
    10     4     5    1
    11     5     6    2
    12     6     7    1
    13     7     8    2
    14     8     9    1
    15     9    10    2
    16    10    11    1
    17    11    12    1
    18    13    12    1
    19    13    14    1
    20    15    14    1
    21    15    16    1
    22    16    17    1
    23    18    17    1
    24    18    19    1
    25    12     1    1
    26    18    13    1
    27    11     3    1
    28    19    15    1
    29    10     6    1
    30    21    22    1
@<TRIPOS>MOLECULE
*****
 26 30 0 0 0
SMALL
GASTEIGER

@<TRIPOS>ATOM
      1 C          63.3477   90.5583   11.6090 C.2     1  UNL1        0.3180
      2 N          63.8408   91.7045   10.7766 N.2     1  UNL1       -0.0390
      3 C          64.8837   92.4370   11.5677 C.2     1  UNL1        0.2637
      4 C          65.7150   93.6459   11.2557 C.2     1  UNL1        0.2821
      5 N          66.6978   94.1613   12.2650 N.2     1  UNL1       -0.0268
      6 C          66.8491   93.4677   13.5863 C.2     1  UNL1        0.3760
      7 N          67.7287   93.7435   14.7697 N.2     1  UNL1       -0.0306
      8 C          67.4409   92.7050   15.8131 C.2     1  UNL1        0.2361
      9 C          66.3835   91.7874   15.2746 C.2     1  UNL1        0.0583
     10 C          66.0177   92.2588   13.8984 C.2     1  UNL1        0.1203
     11 C          65.0350   91.7435   12.8891 C.3     1  UNL1        0.2596
     12 N          64.0857   90.5823   12.9146 N.pl3   1  UNL1       -0.1895
     13 C          63.9060   89.6151   14.0469 C.3     1  UNL1        0.1603
     14 C          64.2853   88.1638   14.0354 C.3     1  UNL1        0.0466
     15 C          63.9292   87.5812   15.3709 C.3     1  UNL1        0.0041
     16 C          63.3386   87.8953   16.7135 C.3     1  UNL1        0.0003
     17 C          62.9593   89.3465   16.7250 C.3     1  UNL1        0.0040
     18 C          63.3154   89.9293   15.3895 C.3     1  UNL1        0.0428
     19 C          63.9149   88.8382   14.5526 C.3     1  UNL1        0.0041
     20 C          62.3003   89.5628   11.2064 C.3     1  UNL1        0.2079
     21 N          60.9145   90.0272   10.8689 N.3     1  UNL1       -0.1711
     22 H          60.9331   91.0469   10.8867 H       1  UNL1        0.1491
     23 C          58.5920   89.1735   12.5651 C.3     1  UNL1        0.1957
     24 S          59.7532   89.6004   11.7170 S.O2    1  UNL1        0.0431
     25 O          59.1180   90.9455   11.5243 O.2     1  UNL1       -0.1574
     26 O          60.3884   88.2552   11.9097 O.2     1  UNL1       -0.1574
@<TRIPOS>BOND
     1    23    24    1
     2    24    25    2
     3    24    26    2
     4    24    21    1
     5    21    20    1
     6    20     1    1
     7     1     2    2
     8     2     3    1
     9     3     4    2
    10     4     5    1
    11     5     6    2
    12     6     7    1
    13     7     8    2
    14     8     9    1
    15     9    10    2
    16    10    11    1
    17    11    12    1
    18    13    12    1
    19    13    14    1
    20    15    14    1
    21    15    16    1
    22    16    17    1
    23    18    17    1
    24    18    19    1
    25    12     1    1
    26    18    13    1
    27    11     3    1
    28    19    15    1
    29    10     6    1
    30    21    22    1
@<TRIPOS>MOLECULE
*****
 26 30 0 0 0
SMALL
GASTEIGER

@<TRIPOS>ATOM
      1 C          63.1625   90.5084   11.8825 C.2     1  UNL1        0.3180
      2 N          63.7012   91.5676   10.9671 N.2     1  UNL1       -0.0390
      3 C          64.8480   92.2408   11.6613 C.2     1  UNL1        0.2637
      4 C          65.7593   93.3562   11.2430 C.2     1  UNL1        0.2821
      5 N          66.8408   93.8286   12.1690 N.2     1  UNL1       -0.0268
      6 C          67.0107   93.1854   13.5134 C.2     1  UNL1        0.3760
      7 N          67.9795   93.4363   14.6307 N.2     1  UNL1       -0.0306
      8 C          67.6669   92.4759   15.7397 C.2     1  UNL1        0.2361
      9 C          66.5049   91.6314   15.3077 C.2     1  UNL1        0.0583
     10 C          66.0994   92.0699   13.9317 C.2     1  UNL1        0.1203
     11 C          65.0180   91.5976   13.0057 C.3     1  UNL1        0.2596
     12 N          63.9763   90.5269   13.1424 N.pl3   1  UNL1       -0.1895
     13 C          63.7825   89.6319   14.3304 C.3     1  UNL1        0.1603
     14 C          63.1535   90.0223   15.6351 C.3     1  UNL1        0.0466
     15 C          63.1659   88.8211   16.5333 C.3     1  UNL1        0.0041
     16 C          63.5669   87.3786   16.6253 C.3     1  UNL1        0.0003
     17 C          64.1958   86.9882   15.3207 C.3     1  UNL1        0.0040
     18 C          64.1835   88.1894   14.4224 C.3     1  UNL1        0.0428
     19 C          63.5470   89.3223   15.1718 C.3     1  UNL1        0.0041
     20 C          62.0120   89.5917   11.5894 C.3     1  UNL1        0.2079
     21 N          62.2230   88.1067   11.5674 N.3     1  UNL1       -0.1711
     22 H          63.2236   87.9533   11.4420 H       1  UNL1        0.1491
     23 C          60.8246   86.4235    9.5152 C.3     1  UNL1        0.1957
     24 S          61.5238   87.2650   10.5413 S.O2    1  UNL1        0.0431
     25 O          61.3522   86.1724   11.5545 O.2     1  UNL1       -0.1574
     26 O          61.6955   88.3578    9.5281 O.2     1  UNL1       -0.1574
@<TRIPOS>BOND
     1    23    24    1
     2    24    25    2
     3    24    26    2
     4    24    21    1
     5    21    20    1
     6    20     1    1
     7     1     2    2
     8     2     3    1
     9     3     4    2
    10     4     5    1
    11     5     6    2
    12     6     7    1
    13     7     8    2
    14     8     9    1
    15     9    10    2
    16    10    11    1
    17    11    12    1
    18    13    12    1
    19    13    14    1
    20    15    14    1
    21    15    16    1
    22    16    17    1
    23    18    17    1
    24    18    19    1
    25    12     1    1
    26    18    13    1
    27    11     3    1
    28    19    15    1
    29    10     6    1
    30    21    22    1
@<TRIPOS>MOLECULE
*****
 26 30 0 0 0
SMALL
GASTEIGER

@<TRIPOS>ATOM
      1 C          63.0263   85.2063   12.7264 C.2     1  UNL1        0.3180
      2 N          63.6644   85.8197   13.9373 N.2     1  UNL1       -0.0390
      3 C          63.7604   87.2996   13.7114 C.2     1  UNL1        0.2637
      4 C          64.3001   88.4117   14.5609 C.2     1  UNL1        0.2821
      5 N          64.2609   89.8250   14.0599 N.2     1  UNL1       -0.0268
      6 C          63.6820   90.1261   12.7093 C.2     1  UNL1        0.3760
      7 N          63.5093   91.4112   11.9552 N.2     1  UNL1       -0.0306
      8 C          62.8629   91.0932   10.6395 C.2     1  UNL1        0.2361
      9 C          62.6361   89.6117   10.5805 C.2     1  UNL1        0.0583
     10 C          63.1423   89.0139   11.8597 C.2     1  UNL1        0.1203
     11 C          63.1815   87.6007   12.3608 C.3     1  UNL1        0.2596
     12 N          62.7278   86.3070   11.7520 N.pl3   1  UNL1       -0.1895
     13 C          62.0879   86.1428   10.4053 C.3     1  UNL1        0.1603
     14 C          60.6997   86.5703   10.0307 C.3     1  UNL1        0.0466
     15 C          60.4778   86.2140    8.5907 C.3     1  UNL1        0.0041
     16 C          61.1137   85.5935    7.3822 C.3     1  UNL1        0.0003
     17 C          62.5018   85.1659    7.7567 C.3     1  UNL1        0.0040
     18 C          62.7238   85.5222    9.1968 C.3     1  UNL1        0.0428
     19 C          61.4728   86.1700    9.7122 C.3     1  UNL1        0.0041
     20 C          62.7373   83.7483   12.5252 C.3     1  UNL1        0.2079
     21 N          62.5719   82.8457   13.7118 N.3     1  UNL1       -0.1711
     22 H          63.3820   82.9979   14.3127 H       1  UNL1        0.1491
     23 C          62.3295   79.8814   13.3192 C.3     1  UNL1        0.1957
     24 S          62.4507   81.3635   13.5155 S.O2    1  UNL1        0.0431
     25 O          61.1386   81.3746   14.2424 O.2     1  UNL1       -0.1574
     26 O          63.7628   81.3525   12.7886 O.2     1  UNL1       -0.1574
@<TRIPOS>BOND
     1    23    24    1
     2    24    25    2
     3    24    26    2
     4    24    21    1
     5    21    20    1
     6    20     1    1
     7     1     2    2
     8     2     3    1
     9     3     4    2
    10     4     5    1
    11     5     6    2
    12     6     7    1
    13     7     8    2
    14     8     9    1
    15     9    10    2
    16    10    11    1
    17    11    12    1
    18    13    12    1
    19    13    14    1
    20    15    14    1
    21    15    16    1
    22    16    17    1
    23    18    17    1
    24    18    19    1
    25    12     1    1
    26    18    13    1
    27    11     3    1
    28    19    15    1
    29    10     6    1
    30    21    22    1
@<TRIPOS>MOLECULE
*****
 26 30 0 0 0
SMALL
GASTEIGER

@<TRIPOS>ATOM
      1 C          62.9944   88.0601   12.2173 C.2     1  UNL1        0.3180
      2 N          63.6930   87.8345   13.5254 N.2     1  UNL1       -0.0390
      3 C          63.8353   86.3548   13.7259 C.2     1  UNL1        0.2637
      4 C          64.4419   85.5457   14.8336 C.2     1  UNL1        0.2821
      5 N          64.4380   84.0476   14.7572 N.2     1  UNL1       -0.0268
      6 C          63.8274   83.3587   13.5730 C.2     1  UNL1        0.3760
      7 N          63.6774   81.9078   13.2231 N.2     1  UNL1       -0.0306
      8 C          62.9780   81.8202   11.8990 C.2     1  UNL1        0.2361
      9 C          62.6958   83.2170   11.4306 C.2     1  UNL1        0.0583
     10 C          63.2207   84.1678   12.4651 C.2     1  UNL1        0.1203
     11 C          63.2246   85.6659   12.5416 C.3     1  UNL1        0.2596
     12 N          62.7050   86.7198   11.6093 N.pl3   1  UNL1       -0.1895
     13 C          62.0167   86.4762   10.2990 C.3     1  UNL1        0.1603
     14 C          62.6243   85.8261    9.0913 C.3     1  UNL1        0.0466
     15 C          61.5831   85.7881    8.0123 C.3     1  UNL1        0.0041
     16 C          60.1664   86.1518    7.6795 C.3     1  UNL1        0.0003
     17 C          59.5589   86.8019    8.8870 C.3     1  UNL1        0.0040
     18 C          60.6000   86.8399    9.9662 C.3     1  UNL1        0.0428
     19 C          61.8511   86.2133    9.4255 C.3     1  UNL1        0.0041
     20 C          62.6464   89.3921   11.6219 C.3     1  UNL1        0.2079
     21 N          62.8492   90.6462   12.4195 N.3     1  UNL1       -0.1711
     22 H          62.0348   91.2370   12.2514 H       1  UNL1        0.1491
     23 C          65.2703   92.3523   11.9422 C.3     1  UNL1        0.1957
     24 S          64.0597   91.4993   12.1809 S.O2    1  UNL1        0.0431
     25 O          64.2252   91.6785   13.6609 O.2     1  UNL1       -0.1574
     26 O          63.8942   91.3201   10.7008 O.2     1  UNL1       -0.1574
@<TRIPOS>BOND
     1    23    24    1
     2    24    25    2
     3    24    26    2
     4    24    21    1
     5    21    20    1
     6    20     1    1
     7     1     2    2
     8     2     3    1
     9     3     4    2
    10     4     5    1
    11     5     6    2
    12     6     7    1
    13     7     8    2
    14     8     9    1
    15     9    10    2
    16    10    11    1
    17    11    12    1
    18    13    12    1
    19    13    14    1
    20    15    14    1
    21    15    16    1
    22    16    17    1
    23    18    17    1
    24    18    19    1
    25    12     1    1
    26    18    13    1
    27    11     3    1
    28    19    15    1
    29    10     6    1
    30    21    22    1
@<TRIPOS>MOLECULE
*****
 26 30 0 0 0
SMALL
GASTEIGER

@<TRIPOS>ATOM
      1 C          65.6956   92.5343   11.0867 C.2     1  UNL1        0.3180
      2 N          64.5058   91.8970   10.4324 N.2     1  UNL1       -0.0390
      3 C          63.7241   91.1778   11.4916 C.2     1  UNL1        0.2637
      4 C          62.4602   90.3723   11.4332 C.2     1  UNL1        0.2821
      5 N          61.9029   89.7595   12.6839 N.2     1  UNL1       -0.0268
      6 C          62.6096   89.9525   13.9928 C.2     1  UNL1        0.3760
      7 N          62.3011   89.4730   15.3802 N.2     1  UNL1       -0.0306
      8 C          63.3744   89.9823   16.2960 C.2     1  UNL1        0.2361
      9 C          64.3463   90.7765   15.4746 C.2     1  UNL1        0.0583
     10 C          63.8736   90.7580   14.0511 C.2     1  UNL1        0.1203
     11 C          64.4309   91.3707   12.8005 C.3     1  UNL1        0.2596
     12 N          65.6493   92.2091   12.5503 N.pl3   1  UNL1       -0.1895
     13 C          66.6463   92.6456   13.5824 C.3     1  UNL1        0.1603
     14 C          66.5803   93.9047   14.3951 C.3     1  UNL1        0.0466
     15 C          67.7776   93.9369   15.2980 C.3     1  UNL1        0.0041
     16 C          69.0158   93.1910   15.6987 C.3     1  UNL1        0.0003
     17 C          69.0819   91.9319   14.8861 C.3     1  UNL1        0.0040
     18 C          67.8845   91.8997   13.9831 C.3     1  UNL1        0.0428
     19 C          67.0784   93.1388   14.2377 C.3     1  UNL1        0.0041
     20 C          66.7471   93.3532   10.3983 C.3     1  UNL1        0.2079
     21 N          66.9342   94.7955   10.7654 N.3     1  UNL1       -0.1711
     22 H          66.1082   95.0740   11.2952 H       1  UNL1        0.1491
     23 C          67.3188   96.8526    8.6159 C.3     1  UNL1        0.1957
     24 S          67.1265   95.8240    9.6906 S.O2    1  UNL1        0.0431
     25 O          67.9691   94.8556    8.9146 O.2     1  UNL1       -0.1574
     26 O          66.2839   96.7925   10.4667 O.2     1  UNL1       -0.1574
@<TRIPOS>BOND
     1    23    24    1
     2    24    25    2
     3    24    26    2
     4    24    21    1
     5    21    20    1
     6    20     1    1
     7     1     2    2
     8     2     3    1
     9     3     4    2
    10     4     5    1
    11     5     6    2
    12     6     7    1
    13     7     8    2
    14     8     9    1
    15     9    10    2
    16    10    11    1
    17    11    12    1
    18    13    12    1
    19    13    14    1
    20    15    14    1
    21    15    16    1
    22    16    17    1
    23    18    17    1
    24    18    19    1
    25    12     1    1
    26    18    13    1
    27    11     3    1
    28    19    15    1
    29    10     6    1
    30    21    22    1
@<TRIPOS>MOLECULE
*****
 26 30 0 0 0
SMALL
GASTEIGER

@<TRIPOS>ATOM
      1 C          63.7425   91.1381   11.5183 C.2     1  UNL1        0.3180
      2 N          63.0982   90.5930   12.7583 N.2     1  UNL1       -0.0390
      3 C          63.8957   91.0615   13.9393 C.2     1  UNL1        0.2637
      4 C          63.7333   90.8359   15.4133 C.2     1  UNL1        0.2821
      5 N          64.7081   91.4449   16.3772 N.2     1  UNL1       -0.0268
      6 C          65.8452   92.2795   15.8670 C.2     1  UNL1        0.3760
      7 N          66.9546   93.0025   16.5716 N.2     1  UNL1       -0.0306
      8 C          67.8026   93.6750   15.5330 C.2     1  UNL1        0.2361
      9 C          67.2173   93.3676   14.1865 C.2     1  UNL1        0.0583
     10 C          66.0075   92.5051   14.3929 C.2     1  UNL1        0.1203
     11 C          65.0328   91.8961   13.4291 C.3     1  UNL1        0.2596
     12 N          64.9382   91.9435   11.9328 N.pl3   1  UNL1       -0.1895
     13 C          65.8747   92.6688   11.0127 C.3     1  UNL1        0.1603
     14 C          65.7043   94.0708   10.5071 C.3     1  UNL1        0.0466
     15 C          66.8703   94.3880    9.6185 C.3     1  UNL1        0.0041
     16 C          68.1417   93.8388    9.0423 C.3     1  UNL1        0.0003
     17 C          68.3121   92.4369    9.5479 C.3     1  UNL1        0.0040
     18 C          67.1461   92.1197   10.4365 C.3     1  UNL1        0.0428
     19 C          66.2549   93.3255   10.4802 C.3     1  UNL1        0.0041
     20 C          63.2735   90.9167   10.1108 C.3     1  UNL1        0.2079
     21 N          61.8115   90.7380    9.8268 N.3     1  UNL1       -0.1711
     22 H          61.3326   91.5430   10.2306 H       1  UNL1        0.1491
     23 C          60.3796   88.2937   10.8142 C.3     1  UNL1        0.1957
     24 S          61.0956   89.5158   10.3205 S.O2    1  UNL1        0.0431
     25 O          62.2016   88.6532    9.7889 O.2     1  UNL1       -0.1574
     26 O          59.9895   90.3785   10.8521 O.2     1  UNL1       -0.1574
@<TRIPOS>BOND
     1    23    24    1
     2    24    25    2
     3    24    26    2
     4    24    21    1
     5    21    20    1
     6    20     1    1
     7     1     2    2
     8     2     3    1
     9     3     4    2
    10     4     5    1
    11     5     6    2
    12     6     7    1
    13     7     8    2
    14     8     9    1
    15     9    10    2
    16    10    11    1
    17    11    12    1
    18    13    12    1
    19    13    14    1
    20    15    14    1
    21    15    16    1
    22    16    17    1
    23    18    17    1
    24    18    19    1
    25    12     1    1
    26    18    13    1
    27    11     3    1
    28    19    15    1
    29    10     6    1
    30    21    22    1
@<TRIPOS>MOLECULE
*****
 26 30 0 0 0
SMALL
GASTEIGER

@<TRIPOS>ATOM
      1 C          63.6574   90.2738   15.1945 C.2     1  UNL1        0.3180
      2 N          64.5726   91.1646   15.9812 N.2     1  UNL1       -0.0390
      3 C          65.3387   92.0146   15.0114 C.2     1  UNL1        0.2637
      4 C          66.3813   93.0742   15.2113 C.2     1  UNL1        0.2821
      5 N          66.9824   93.7684   14.0252 N.2     1  UNL1       -0.0268
      6 C          66.5407   93.4029   12.6391 C.2     1  UNL1        0.3760
      7 N          66.9504   93.9108   11.2885 N.2     1  UNL1       -0.0306
      8 C          66.1609   93.1650   10.2538 C.2     1  UNL1        0.2361
      9 C          65.2633   92.1963   10.9649 C.2     1  UNL1        0.0583
     10 C          65.4980   92.3432   12.4391 C.2     1  UNL1        0.1203
     11 C          64.8970   91.6491   13.6253 C.3     1  UNL1        0.2596
     12 N          63.8579   90.5732   13.7384 N.pl3   1  UNL1       -0.1895
     13 C          63.1446   89.9127   12.5961 C.3     1  UNL1        0.1603
     14 C          63.2242   88.4607   12.2282 C.3     1  UNL1        0.0466
     15 C          62.3553   88.2389   11.0259 C.3     1  UNL1        0.0041
     16 C          61.4370   88.9144   10.0509 C.3     1  UNL1        0.0003
     17 C          61.3574   90.3664   10.4188 C.3     1  UNL1        0.0040
     18 C          62.2264   90.5883   11.6212 C.3     1  UNL1        0.0428
     19 C          62.8431   89.2734   11.9964 C.3     1  UNL1        0.0041
     20 C          62.7084   89.2613   15.7639 C.3     1  UNL1        0.2079
     21 N          63.1525   88.3605   16.8780 N.3     1  UNL1       -0.1711
     22 H          64.1337   88.5746   17.0565 H       1  UNL1        0.1491
     23 C          62.9585   85.3829   16.5671 C.3     1  UNL1        0.1957
     24 S          63.0555   86.8716   16.7226 S.O2    1  UNL1        0.0431
     25 O          62.3019   86.7856   18.0167 O.2     1  UNL1       -0.1574
     26 O          63.8091   86.9577   15.4285 O.2     1  UNL1       -0.1574
@<TRIPOS>BOND
     1    23    24    1
     2    24    25    2
     3    24    26    2
     4    24    21    1
     5    21    20    1
     6    20     1    1
     7     1     2    2
     8     2     3    1
     9     3     4    2
    10     4     5    1
    11     5     6    2
    12     6     7    1
    13     7     8    2
    14     8     9    1
    15     9    10    2
    16    10    11    1
    17    11    12    1
    18    13    12    1
    19    13    14    1
    20    15    14    1
    21    15    16    1
    22    16    17    1
    23    18    17    1
    24    18    19    1
    25    12     1    1
    26    18    13    1
    27    11     3    1
    28    19    15    1
    29    10     6    1
    30    21    22    1
