@<TRIPOS>MOLECULE
*****
 33 35 0 0 0
SMALL
GASTEIGER

@<TRIPOS>ATOM
      1 C          61.1470   87.9064   10.0457 C.3     1  UNL1        0.0393
      2 C          59.7029   87.6298   10.3423 C.3     1  UNL1        0.1452
      3 O          59.0753   88.9055   10.8206 O.3     1  UNL1       -0.3306
      4 C          60.1316   89.9706   10.8196 C.3     1  UNL1        0.2320
      5 O          59.9409   91.4018   11.2261 O.3     1  UNL1       -0.3601
      6 C          61.4119   89.3531   10.3407 C.3     1  UNL1        0.0634
      7 H          60.7803   91.8789   11.1329 H       1  UNL1        0.2129
      8 C          62.1501   86.9111    9.5425 C.3     1  UNL1        0.0292
      9 C          63.7211   83.4985   10.8217 C.ar    1  UNL1        0.1751
     10 C          63.1878   84.5565    9.9018 C.ar    1  UNL1        0.0360
     11 C          62.6835   85.8532   10.4625 C.ar    1  UNL1       -0.0159
     12 C          62.7125   86.0919   11.9431 C.ar    1  UNL1        0.0360
     13 C          63.2458   85.0339   12.8630 C.ar    1  UNL1        0.1751
     14 C          63.7501   83.7373   12.3023 C.ar    1  UNL1        0.2060
     15 C          63.3610   80.9770   10.3100 C.3     1  UNL1        0.2526
     16 O          64.2254   82.2019   10.2611 O.3     1  UNL1       -0.4683
     17 O          63.2748   85.2726   14.3436 O.3     1  UNL1       -0.4683
     18 C          64.5361   85.7474   15.0022 C.3     1  UNL1        0.2526
     19 O          64.2834   82.6793   13.2223 O.3     1  UNL1       -0.4654
     20 C          63.3377   81.7556   13.9312 C.3     1  UNL1        0.2528
     21 C          62.7265   90.0585   10.1843 C.3     1  UNL1        0.0317
     22 C          63.4963   90.4881   11.3978 C.ar    1  UNL1       -0.0158
     23 C          63.4547   89.6568   12.6456 C.ar    1  UNL1        0.0360
     24 C          64.2247   90.0865   13.8592 C.ar    1  UNL1        0.1751
     25 C          65.0362   91.3475   13.8248 C.ar    1  UNL1        0.2060
     26 C          65.0778   92.1789   12.5769 C.ar    1  UNL1        0.1751
     27 C          64.3079   91.7492   11.3634 C.ar    1  UNL1        0.0360
     28 O          64.1831   89.2552   15.1069 O.3     1  UNL1       -0.4683
     29 C          63.2368   89.6121   16.2148 C.3     1  UNL1        0.2526
     30 O          65.8061   91.7772   15.0382 O.3     1  UNL1       -0.4654
     31 C          67.2967   91.6132   15.0777 C.3     1  UNL1        0.2528
     32 O          65.8894   93.4400   12.5425 O.3     1  UNL1       -0.4683
     33 C          66.1438   94.1327   11.2365 C.3     1  UNL1        0.2526
@<TRIPOS>BOND
     1    15    16    1
     2    16     9    1
     3     9    10   ar
     4    10    11   ar
     5    11     8    1
     6     1     8    1
     7     1     2    1
     8     2     3    1
     9     3     4    1
    10     4     5    1
    11     4     6    1
    12     6    21    1
    13    21    22    1
    14    22    23   ar
    15    23    24   ar
    16    24    28    1
    17    28    29    1
    18    24    25   ar
    19    25    30    1
    20    30    31    1
    21    25    26   ar
    22    26    32    1
    23    32    33    1
    24    26    27   ar
    25    11    12   ar
    26    12    13   ar
    27    13    17    1
    28    17    18    1
    29    13    14   ar
    30    14    19    1
    31    19    20    1
    32    14     9   ar
    33     6     1    1
    34    27    22   ar
    35     5     7    1
@<TRIPOS>MOLECULE
*****
 33 35 0 0 0
SMALL
GASTEIGER

@<TRIPOS>ATOM
      1 C          61.1716   87.8757   10.0762 C.3     1  UNL1        0.0393
      2 C          59.7341   87.5799   10.3861 C.3     1  UNL1        0.1452
      3 O          59.0884   88.8522   10.8492 O.3     1  UNL1       -0.3306
      4 C          60.1269   89.9343   10.8256 C.3     1  UNL1        0.2320
      5 O          59.9151   91.3681   11.2119 O.3     1  UNL1       -0.3601
      6 C          61.4143   89.3308   10.3479 C.3     1  UNL1        0.0634
      7 H          60.7459   91.8576   11.1062 H       1  UNL1        0.2129
      8 C          62.1879   86.8896    9.5816 C.3     1  UNL1        0.0292
      9 C          63.2266   84.9733   12.8981 C.ar    1  UNL1        0.1751
     10 C          62.7117   86.0432   11.9815 C.ar    1  UNL1        0.0360
     11 C          62.7028   85.8196   10.4982 C.ar    1  UNL1       -0.0159
     12 C          63.2086   84.5262    9.9316 C.ar    1  UNL1        0.0360
     13 C          63.7235   83.4563   10.8483 C.ar    1  UNL1        0.1751
     14 C          63.7324   83.6798   12.3315 C.ar    1  UNL1        0.2060
     15 C          64.4102   85.8652   15.0320 C.3     1  UNL1        0.2526
     16 O          63.2355   85.1968   14.3813 O.3     1  UNL1       -0.4683
     17 O          64.2294   82.1628   10.2817 O.3     1  UNL1       -0.4683
     18 C          63.3546   80.9444   10.2965 C.3     1  UNL1        0.2526
     19 O          64.2473   82.6099   13.2481 O.3     1  UNL1       -0.4654
     20 C          63.2901   81.6576   13.9015 C.3     1  UNL1        0.2528
     21 C          62.7160   90.0553   10.1726 C.3     1  UNL1        0.0317
     22 C          63.4952   90.4994   11.3749 C.ar    1  UNL1       -0.0158
     23 C          63.4754   89.6751   12.6279 C.ar    1  UNL1        0.0360
     24 C          64.2546   90.1193   13.8303 C.ar    1  UNL1        0.1751
     25 C          65.0536   91.3878   13.7795 C.ar    1  UNL1        0.2060
     26 C          65.0734   92.2121   12.5265 C.ar    1  UNL1        0.1751
     27 C          64.2942   91.7679   11.3242 C.ar    1  UNL1        0.0360
     28 O          64.2348   89.2950   15.0833 O.3     1  UNL1       -0.4683
     29 C          63.2505   89.6076   16.1712 C.3     1  UNL1        0.2526
     30 O          65.8328   91.8320   14.9818 O.3     1  UNL1       -0.4654
     31 C          67.3129   91.5960   15.0455 C.3     1  UNL1        0.2528
     32 O          65.8724   93.4806   12.4757 O.3     1  UNL1       -0.4683
     33 C          66.3825   93.9935   11.1615 C.3     1  UNL1        0.2526
@<TRIPOS>BOND
     1    15    16    1
     2    16     9    1
     3     9    10   ar
     4    10    11   ar
     5    11     8    1
     6     1     8    1
     7     1     2    1
     8     2     3    1
     9     3     4    1
    10     4     5    1
    11     4     6    1
    12     6    21    1
    13    21    22    1
    14    22    23   ar
    15    23    24   ar
    16    24    28    1
    17    28    29    1
    18    24    25   ar
    19    25    30    1
    20    30    31    1
    21    25    26   ar
    22    26    32    1
    23    32    33    1
    24    26    27   ar
    25    11    12   ar
    26    12    13   ar
    27    13    17    1
    28    17    18    1
    29    13    14   ar
    30    14    19    1
    31    19    20    1
    32    14     9   ar
    33     6     1    1
    34    27    22   ar
    35     5     7    1
@<TRIPOS>MOLECULE
*****
 33 35 0 0 0
SMALL
GASTEIGER

@<TRIPOS>ATOM
      1 C          61.1770   87.9140   10.1767 C.3     1  UNL1        0.0393
      2 C          59.7525   87.5904   10.5172 C.3     1  UNL1        0.1452
      3 O          59.0868   88.8540   10.9756 O.3     1  UNL1       -0.3306
      4 C          60.1000   89.9587   10.9184 C.3     1  UNL1        0.2320
      5 O          59.8630   91.3925   11.2897 O.3     1  UNL1       -0.3601
      6 C          61.3918   89.3777   10.4247 C.3     1  UNL1        0.0634
      7 H          60.6805   91.8989   11.1622 H       1  UNL1        0.2129
      8 C          62.2061   86.9442    9.6762 C.3     1  UNL1        0.0292
      9 C          63.7197   83.4829   10.8923 C.ar    1  UNL1        0.1751
     10 C          63.2125   84.5698    9.9914 C.ar    1  UNL1        0.0360
     11 C          62.7132   85.8573   10.5771 C.ar    1  UNL1       -0.0159
     12 C          62.7210   86.0579   12.0636 C.ar    1  UNL1        0.0360
     13 C          63.2281   84.9711   12.9644 C.ar    1  UNL1        0.1751
     14 C          63.7274   83.6836   12.3787 C.ar    1  UNL1        0.2060
     15 C          63.3376   80.9817   10.3024 C.3     1  UNL1        0.2526
     16 O          64.2190   82.1954   10.3066 O.3     1  UNL1       -0.4683
     17 O          63.2359   85.1717   14.4509 O.3     1  UNL1       -0.4683
     18 C          64.3678   85.9095   15.1022 C.3     1  UNL1        0.2526
     19 O          64.2346   82.5967   13.2796 O.3     1  UNL1       -0.4654
     20 C          63.2728   81.6271   13.9001 C.3     1  UNL1        0.2528
     21 C          62.6734   90.1286   10.2156 C.3     1  UNL1        0.0317
     22 C          63.4892   90.5634   11.3968 C.ar    1  UNL1       -0.0158
     23 C          64.3093   91.8171   11.3214 C.ar    1  UNL1        0.0360
     24 C          65.1251   92.2519   12.5027 C.ar    1  UNL1        0.1751
     25 C          65.1208   91.4330   13.7594 C.ar    1  UNL1        0.2060
     26 C          64.3007   90.1792   13.8349 C.ar    1  UNL1        0.1751
     27 C          63.4849   89.7445   12.6536 C.ar    1  UNL1        0.0360
     28 O          65.9452   93.5055   12.4272 O.3     1  UNL1       -0.4683
     29 C          66.2862   94.0996   11.0927 C.3     1  UNL1        0.2526
     30 O          65.9366   91.8677   14.9407 O.3     1  UNL1       -0.4654
     31 C          67.4146   91.6127   14.9662 C.3     1  UNL1        0.2528
     32 O          64.2964   89.3603   15.0916 O.3     1  UNL1       -0.4683
     33 C          63.2372   89.5853   16.1297 C.3     1  UNL1        0.2526
@<TRIPOS>BOND
     1    15    16    1
     2    16     9    1
     3     9    10   ar
     4    10    11   ar
     5    11     8    1
     6     1     8    1
     7     1     2    1
     8     2     3    1
     9     3     4    1
    10     4     5    1
    11     4     6    1
    12     6    21    1
    13    21    22    1
    14    22    23   ar
    15    23    24   ar
    16    24    28    1
    17    28    29    1
    18    24    25   ar
    19    25    30    1
    20    30    31    1
    21    25    26   ar
    22    26    32    1
    23    32    33    1
    24    26    27   ar
    25    11    12   ar
    26    12    13   ar
    27    13    17    1
    28    17    18    1
    29    13    14   ar
    30    14    19    1
    31    19    20    1
    32    14     9   ar
    33     6     1    1
    34    27    22   ar
    35     5     7    1
@<TRIPOS>MOLECULE
*****
 33 35 0 0 0
SMALL
GASTEIGER

@<TRIPOS>ATOM
      1 C          61.1902   87.7993   10.1128 C.3     1  UNL1        0.0393
      2 C          59.7560   87.4892   10.4239 C.3     1  UNL1        0.1452
      3 O          59.0908   88.7609   10.8602 O.3     1  UNL1       -0.3306
      4 C          60.1140   89.8570   10.8187 C.3     1  UNL1        0.2320
      5 O          59.8807   91.2949   11.1763 O.3     1  UNL1       -0.3601
      6 C          61.4115   89.2627   10.3568 C.3     1  UNL1        0.0634
      7 H          60.7049   91.7939   11.0637 H       1  UNL1        0.2129
      8 C          62.2220   86.8182    9.6406 C.3     1  UNL1        0.0292
      9 C          63.2280   84.9309   12.9836 C.ar    1  UNL1        0.1751
     10 C          62.7209   85.9921   12.0528 C.ar    1  UNL1        0.0360
     11 C          62.7292   85.7569   10.5714 C.ar    1  UNL1       -0.0159
     12 C          63.2446   84.4603   10.0208 C.ar    1  UNL1        0.0360
     13 C          63.7517   83.3990   10.9516 C.ar    1  UNL1        0.1751
     14 C          63.7434   83.6343   12.4330 C.ar    1  UNL1        0.2060
     15 C          64.3997   85.8123   15.1284 C.3     1  UNL1        0.2526
     16 O          63.2198   85.1661   14.4650 O.3     1  UNL1       -0.4683
     17 O          64.2671   82.1023   10.4010 O.3     1  UNL1       -0.4683
     18 C          63.3416   80.9318   10.2479 C.3     1  UNL1        0.2526
     19 O          64.2505   82.5729   13.3638 O.3     1  UNL1       -0.4654
     20 C          63.3515   81.4454   13.7766 C.3     1  UNL1        0.2528
     21 C          62.7034   90.0020   10.1714 C.3     1  UNL1        0.0317
     22 C          63.4852   90.4578   11.3677 C.ar    1  UNL1       -0.0158
     23 C          64.2844   91.7254   11.3029 C.ar    1  UNL1        0.0360
     24 C          65.0662   92.1811   12.4992 C.ar    1  UNL1        0.1751
     25 C          65.0486   91.3692   13.7604 C.ar    1  UNL1        0.2060
     26 C          64.2492   90.1015   13.8252 C.ar    1  UNL1        0.1751
     27 C          63.4676   89.6458   12.6289 C.ar    1  UNL1        0.0360
     28 O          65.8654   93.4487   12.4344 O.3     1  UNL1       -0.4683
     29 C          66.0185   94.1731   11.1298 C.3     1  UNL1        0.2526
     30 O          65.8303   91.8249   14.9567 O.3     1  UNL1       -0.4654
     31 C          67.3118   91.5974   15.0157 C.3     1  UNL1        0.2528
     32 O          64.2316   89.2896   15.0863 O.3     1  UNL1       -0.4683
     33 C          63.2188   89.5832   16.1532 C.3     1  UNL1        0.2526
@<TRIPOS>BOND
     1    15    16    1
     2    16     9    1
     3     9    10   ar
     4    10    11   ar
     5    11     8    1
     6     1     8    1
     7     1     2    1
     8     2     3    1
     9     3     4    1
    10     4     5    1
    11     4     6    1
    12     6    21    1
    13    21    22    1
    14    22    23   ar
    15    23    24   ar
    16    24    28    1
    17    28    29    1
    18    24    25   ar
    19    25    30    1
    20    30    31    1
    21    25    26   ar
    22    26    32    1
    23    32    33    1
    24    26    27   ar
    25    11    12   ar
    26    12    13   ar
    27    13    17    1
    28    17    18    1
    29    13    14   ar
    30    14    19    1
    31    19    20    1
    32    14     9   ar
    33     6     1    1
    34    27    22   ar
    35     5     7    1
@<TRIPOS>MOLECULE
*****
 33 35 0 0 0
SMALL
GASTEIGER

@<TRIPOS>ATOM
      1 C          61.6859   89.1617    9.9579 C.3     1  UNL1        0.0393
      2 C          60.4226   89.9429   10.1669 C.3     1  UNL1        0.1452
      3 O          59.2698   89.0827    9.7414 O.3     1  UNL1       -0.3306
      4 C          59.8207   87.7698    9.2694 C.3     1  UNL1        0.2320
      5 O          59.0191   86.6114    8.7541 O.3     1  UNL1       -0.3601
      6 C          61.3139   87.8186    9.4032 C.3     1  UNL1        0.0634
      7 H          59.6166   85.8854    8.5156 H       1  UNL1        0.2129
      8 C          63.0770   89.6397   10.2520 C.3     1  UNL1        0.0292
      9 C          63.0856   90.2335   14.1759 C.ar    1  UNL1        0.1751
     10 C          62.7599   89.6556   12.8306 C.ar    1  UNL1        0.0360
     11 C          63.4027   90.2176   11.5974 C.ar    1  UNL1       -0.0159
     12 C          64.3713   91.3574   11.7095 C.ar    1  UNL1        0.0360
     13 C          64.6970   91.9353   13.0548 C.ar    1  UNL1        0.1751
     14 C          64.0541   91.3733   14.2880 C.ar    1  UNL1        0.2060
     15 C          63.2873   89.0268   16.4679 C.3     1  UNL1        0.2526
     16 O          62.4427   89.6715   15.4092 O.3     1  UNL1       -0.4683
     17 O          65.6656   93.0752   13.1669 O.3     1  UNL1       -0.4683
     18 C          66.0573   93.8496   11.9435 C.3     1  UNL1        0.2526
     19 O          64.3799   91.9512   15.6334 O.3     1  UNL1       -0.4654
     20 C          65.7968   92.3068   15.9738 C.3     1  UNL1        0.2528
     21 C          62.2677   86.7176    9.0452 C.3     1  UNL1        0.0317
     22 C          62.7084   85.7372   10.0914 C.ar    1  UNL1       -0.0158
     23 C          62.6124   86.0970   11.5444 C.ar    1  UNL1        0.0360
     24 C          63.0531   85.1165   12.5906 C.ar    1  UNL1        0.1751
     25 C          63.5899   83.7763   12.1836 C.ar    1  UNL1        0.2060
     26 C          63.6860   83.4164   10.7306 C.ar    1  UNL1        0.1751
     27 C          63.2452   84.3969    9.6845 C.ar    1  UNL1        0.0360
     28 O          62.9571   85.4762   14.0435 O.3     1  UNL1       -0.4683
     29 C          64.1919   85.8578   14.8050 C.3     1  UNL1        0.2526
     30 O          64.0307   82.7958   13.2297 O.3     1  UNL1       -0.4654
     31 C          63.0153   81.9528   13.9430 C.3     1  UNL1        0.2528
     32 O          64.2228   82.0762   10.3236 O.3     1  UNL1       -0.4683
     33 C          63.3353   80.8676   10.3690 C.3     1  UNL1        0.2526
@<TRIPOS>BOND
     1    15    16    1
     2    16     9    1
     3     9    10   ar
     4    10    11   ar
     5    11     8    1
     6     1     8    1
     7     1     2    1
     8     2     3    1
     9     3     4    1
    10     4     5    1
    11     4     6    1
    12     6    21    1
    13    21    22    1
    14    22    23   ar
    15    23    24   ar
    16    24    28    1
    17    28    29    1
    18    24    25   ar
    19    25    30    1
    20    30    31    1
    21    25    26   ar
    22    26    32    1
    23    32    33    1
    24    26    27   ar
    25    11    12   ar
    26    12    13   ar
    27    13    17    1
    28    17    18    1
    29    13    14   ar
    30    14    19    1
    31    19    20    1
    32    14     9   ar
    33     6     1    1
    34    27    22   ar
    35     5     7    1
@<TRIPOS>MOLECULE
*****
 33 35 0 0 0
SMALL
GASTEIGER

@<TRIPOS>ATOM
      1 C          61.8079   90.5349   10.6666 C.3     1  UNL1        0.0393
      2 C          60.6433   91.3244   11.1867 C.3     1  UNL1        0.1452
      3 O          59.5824   90.3558   11.6183 O.3     1  UNL1       -0.3306
      4 C          60.0913   88.9677   11.3650 C.3     1  UNL1        0.2320
      5 O          59.3542   87.6927   11.6499 O.3     1  UNL1       -0.3601
      6 C          61.4667   89.0784   10.7769 C.3     1  UNL1        0.0634
      7 H          59.9054   86.9366   11.3942 H       1  UNL1        0.2129
      8 C          63.0888   91.1023   10.1305 C.3     1  UNL1        0.0292
      9 C          65.1519   91.7562   13.4571 C.ar    1  UNL1        0.1751
     10 C          64.1168   91.2191   12.5137 C.ar    1  UNL1        0.0360
     11 C          64.1240   91.6395   11.0739 C.ar    1  UNL1       -0.0159
     12 C          65.1664   92.5970   10.5773 C.ar    1  UNL1        0.0360
     13 C          66.2016   93.1340   11.5207 C.ar    1  UNL1        0.1751
     14 C          66.1943   92.7136   12.9606 C.ar    1  UNL1        0.2060
     15 C          63.9816   90.5649   15.4473 C.3     1  UNL1        0.2526
     16 O          65.1447   91.3358   14.8969 O.3     1  UNL1       -0.4683
     17 O          67.2441   94.0916   11.0242 O.3     1  UNL1       -0.4683
     18 C          67.4754   94.2506    9.5507 C.3     1  UNL1        0.2526
     19 O          67.2296   93.2508   13.9039 O.3     1  UNL1       -0.4654
     20 C          68.3372   92.3621   14.3869 C.3     1  UNL1        0.2528
     21 C          62.3465   87.9336   10.3703 C.3     1  UNL1        0.0317
     22 C          62.7009   86.8693   11.3662 C.ar    1  UNL1       -0.0158
     23 C          63.3569   87.2433   12.6622 C.ar    1  UNL1        0.0360
     24 C          63.7112   86.1790   13.6581 C.ar    1  UNL1        0.1751
     25 C          63.4094   84.7407   13.3579 C.ar    1  UNL1        0.2060
     26 C          62.7533   84.3666   12.0619 C.ar    1  UNL1        0.1751
     27 C          62.3990   85.4309   11.0661 C.ar    1  UNL1        0.0360
     28 O          64.3673   86.5530   14.9540 O.3     1  UNL1       -0.4683
     29 C          63.5859   86.4988   16.2334 C.3     1  UNL1        0.2526
     30 O          63.7636   83.6764   14.3538 O.3     1  UNL1       -0.4654
     31 C          62.6907   83.0461   15.1915 C.3     1  UNL1        0.2528
     32 O          62.4514   82.9283   11.7617 O.3     1  UNL1       -0.4683
     33 C          63.5198   82.0400   11.1963 C.3     1  UNL1        0.2526
@<TRIPOS>BOND
     1    15    16    1
     2    16     9    1
     3     9    10   ar
     4    10    11   ar
     5    11     8    1
     6     1     8    1
     7     1     2    1
     8     2     3    1
     9     3     4    1
    10     4     5    1
    11     4     6    1
    12     6    21    1
    13    21    22    1
    14    22    23   ar
    15    23    24   ar
    16    24    28    1
    17    28    29    1
    18    24    25   ar
    19    25    30    1
    20    30    31    1
    21    25    26   ar
    22    26    32    1
    23    32    33    1
    24    26    27   ar
    25    11    12   ar
    26    12    13   ar
    27    13    17    1
    28    17    18    1
    29    13    14   ar
    30    14    19    1
    31    19    20    1
    32    14     9   ar
    33     6     1    1
    34    27    22   ar
    35     5     7    1
@<TRIPOS>MOLECULE
*****
 33 35 0 0 0
SMALL
GASTEIGER

@<TRIPOS>ATOM
      1 C          61.7899   90.5231   10.6287 C.3     1  UNL1        0.0393
      2 C          60.6354   91.3195   11.1605 C.3     1  UNL1        0.1452
      3 O          59.5871   90.3566   11.6339 O.3     1  UNL1       -0.3306
      4 C          60.0938   88.9652   11.3946 C.3     1  UNL1        0.2320
      5 O          59.3667   87.6941   11.7196 O.3     1  UNL1       -0.3601
      6 C          61.4552   89.0682   10.7733 C.3     1  UNL1        0.0634
      7 H          59.9139   86.9346   11.4653 H       1  UNL1        0.2129
      8 C          63.0567   91.0834   10.0531 C.3     1  UNL1        0.0292
      9 C          66.3394   92.9292   11.3051 C.ar    1  UNL1        0.1751
     10 C          65.2760   92.3904   10.3947 C.ar    1  UNL1        0.0360
     11 C          64.1201   91.6223   10.9637 C.ar    1  UNL1       -0.0159
     12 C          64.0275   91.3929   12.4431 C.ar    1  UNL1        0.0360
     13 C          65.0909   91.9317   13.3535 C.ar    1  UNL1        0.1751
     14 C          66.2468   92.6999   12.7845 C.ar    1  UNL1        0.2060
     15 C          68.0882   93.2939    9.4187 C.3     1  UNL1        0.2526
     16 O          67.4953   93.6974   10.7361 O.3     1  UNL1       -0.4683
     17 O          64.9983   91.7024   14.8331 O.3     1  UNL1       -0.4683
     18 C          64.1035   90.6252   15.3705 C.3     1  UNL1        0.2526
     19 O          67.3102   93.2387   13.6951 O.3     1  UNL1       -0.4654
     20 C          68.2874   92.3032   14.3430 C.3     1  UNL1        0.2528
     21 C          62.3285   87.9180   10.3679 C.3     1  UNL1        0.0317
     22 C          62.7040   86.8703   11.3736 C.ar    1  UNL1       -0.0158
     23 C          63.3371   87.2707   12.6730 C.ar    1  UNL1        0.0360
     24 C          63.7126   86.2230   13.6787 C.ar    1  UNL1        0.1751
     25 C          63.4549   84.7748   13.3848 C.ar    1  UNL1        0.2060
     26 C          62.8217   84.3743   12.0852 C.ar    1  UNL1        0.1751
     27 C          62.4463   85.4221   11.0797 C.ar    1  UNL1        0.0360
     28 O          64.3457   86.6234   14.9782 O.3     1  UNL1       -0.4683
     29 C          63.5217   86.6713   16.2307 C.3     1  UNL1        0.2526
     30 O          63.8303   83.7271   14.3904 O.3     1  UNL1       -0.4654
     31 C          62.7837   83.1455   15.2940 C.3     1  UNL1        0.2528
     32 O          62.5640   82.9262   11.7913 O.3     1  UNL1       -0.4683
     33 C          63.5655   82.1301   11.0081 C.3     1  UNL1        0.2526
@<TRIPOS>BOND
     1    15    16    1
     2    16     9    1
     3     9    10   ar
     4    10    11   ar
     5    11     8    1
     6     1     8    1
     7     1     2    1
     8     2     3    1
     9     3     4    1
    10     4     5    1
    11     4     6    1
    12     6    21    1
    13    21    22    1
    14    22    23   ar
    15    23    24   ar
    16    24    28    1
    17    28    29    1
    18    24    25   ar
    19    25    30    1
    20    30    31    1
    21    25    26   ar
    22    26    32    1
    23    32    33    1
    24    26    27   ar
    25    11    12   ar
    26    12    13   ar
    27    13    17    1
    28    17    18    1
    29    13    14   ar
    30    14    19    1
    31    19    20    1
    32    14     9   ar
    33     6     1    1
    34    27    22   ar
    35     5     7    1
@<TRIPOS>MOLECULE
*****
 33 35 0 0 0
SMALL
GASTEIGER

@<TRIPOS>ATOM
      1 C          61.8534   90.4729   10.6425 C.3     1  UNL1        0.0393
      2 C          60.7316   91.3162   11.1721 C.3     1  UNL1        0.1452
      3 O          59.6107   90.4012   11.5677 O.3     1  UNL1       -0.3306
      4 C          60.0398   88.9925   11.2826 C.3     1  UNL1        0.2320
      5 O          59.2257   87.7564   11.5266 O.3     1  UNL1       -0.3601
      6 C          61.4258   89.0368   10.7108 C.3     1  UNL1        0.0634
      7 H          59.7342   86.9758   11.2563 H       1  UNL1        0.2129
      8 C          63.1713   90.9773   10.1339 C.3     1  UNL1        0.0292
      9 C          65.0703   91.9006   13.4941 C.ar    1  UNL1        0.1751
     10 C          64.0891   91.2778   12.5458 C.ar    1  UNL1        0.0360
     11 C          64.1525   91.6001   11.0822 C.ar    1  UNL1       -0.0159
     12 C          65.1971   92.5453   10.5669 C.ar    1  UNL1        0.0360
     13 C          66.1783   93.1681   11.5153 C.ar    1  UNL1        0.1751
     14 C          66.1149   92.8457   12.9789 C.ar    1  UNL1        0.2060
     15 C          63.9417   90.6592   15.4778 C.3     1  UNL1        0.2526
     16 O          65.0069   91.5783   14.9577 O.3     1  UNL1       -0.4683
     17 O          67.2229   94.1133   11.0000 O.3     1  UNL1       -0.4683
     18 C          67.4300   94.2693    9.5226 C.3     1  UNL1        0.2526
     19 O          67.0961   93.4686   13.9272 O.3     1  UNL1       -0.4654
     20 C          68.1270   92.6166   14.6065 C.3     1  UNL1        0.2528
     21 C          62.2411   87.8528   10.2825 C.3     1  UNL1        0.0317
     22 C          62.6223   86.8028   11.2837 C.ar    1  UNL1       -0.0158
     23 C          62.3822   85.3539   10.9792 C.ar    1  UNL1        0.0360
     24 C          62.7634   84.3039   11.9804 C.ar    1  UNL1        0.1751
     25 C          63.3847   84.7030   13.2860 C.ar    1  UNL1        0.2060
     26 C          63.6247   86.1521   13.5906 C.ar    1  UNL1        0.1751
     27 C          63.2435   87.2020   12.5894 C.ar    1  UNL1        0.0360
     28 O          62.5234   82.8549   11.6759 O.3     1  UNL1       -0.4683
     29 C          63.5837   82.0475   10.9873 C.3     1  UNL1        0.2526
     30 O          63.7659   83.6531   14.2872 O.3     1  UNL1       -0.4654
     31 C          62.7036   82.9573   15.0857 C.3     1  UNL1        0.2528
     32 O          64.2460   86.5512   14.8962 O.3     1  UNL1       -0.4683
     33 C          63.4787   86.3833   16.1742 C.3     1  UNL1        0.2526
@<TRIPOS>BOND
     1    15    16    1
     2    16     9    1
     3     9    10   ar
     4    10    11   ar
     5    11     8    1
     6     1     8    1
     7     1     2    1
     8     2     3    1
     9     3     4    1
    10     4     5    1
    11     4     6    1
    12     6    21    1
    13    21    22    1
    14    22    23   ar
    15    23    24   ar
    16    24    28    1
    17    28    29    1
    18    24    25   ar
    19    25    30    1
    20    30    31    1
    21    25    26   ar
    22    26    32    1
    23    32    33    1
    24    26    27   ar
    25    11    12   ar
    26    12    13   ar
    27    13    17    1
    28    17    18    1
    29    13    14   ar
    30    14    19    1
    31    19    20    1
    32    14     9   ar
    33     6     1    1
    34    27    22   ar
    35     5     7    1
@<TRIPOS>MOLECULE
*****
 33 35 0 0 0
SMALL
GASTEIGER

@<TRIPOS>ATOM
      1 C          61.8748   90.4763   10.6720 C.3     1  UNL1        0.0393
      2 C          60.7212   91.2802   11.1944 C.3     1  UNL1        0.1452
      3 O          59.6431   90.3253   11.6141 O.3     1  UNL1       -0.3306
      4 C          60.1305   88.9313   11.3510 C.3     1  UNL1        0.2320
      5 O          59.3719   87.6661   11.6225 O.3     1  UNL1       -0.3601
      6 C          61.5098   89.0247   10.7688 C.3     1  UNL1        0.0634
      7 H          59.9118   86.9033   11.3625 H       1  UNL1        0.2129
      8 C          63.1667   91.0274   10.1452 C.3     1  UNL1        0.0292
      9 C          66.2441   93.1241   11.5174 C.ar    1  UNL1        0.1751
     10 C          65.2398   92.5340   10.5725 C.ar    1  UNL1        0.0360
     11 C          64.1711   91.6176   11.0902 C.ar    1  UNL1       -0.0159
     12 C          64.1067   91.2913   12.5529 C.ar    1  UNL1        0.0360
     13 C          65.1111   91.8814   13.4978 C.ar    1  UNL1        0.1751
     14 C          66.1798   92.7979   12.9801 C.ar    1  UNL1        0.2060
     15 C          67.0128   94.9793    9.8689 C.3     1  UNL1        0.2526
     16 O          67.3129   94.0406   10.9997 O.3     1  UNL1       -0.4683
     17 O          65.0468   91.5552   14.9605 O.3     1  UNL1       -0.4683
     18 C          63.9090   90.7385   15.4975 C.3     1  UNL1        0.2526
     19 O          67.1842   93.3880   13.9251 O.3     1  UNL1       -0.4654
     20 C          68.2416   92.5168   14.5358 C.3     1  UNL1        0.2528
     21 C          62.3725   87.8691   10.3558 C.3     1  UNL1        0.0317
     22 C          62.7110   86.7943   11.3458 C.ar    1  UNL1       -0.0158
     23 C          62.4128   85.3595   11.0265 C.ar    1  UNL1        0.0360
     24 C          62.7514   84.2846   12.0166 C.ar    1  UNL1        0.1751
     25 C          63.3882   84.6449   13.3260 C.ar    1  UNL1        0.2060
     26 C          63.6865   86.0798   13.6454 C.ar    1  UNL1        0.1751
     27 C          63.3479   87.1546   12.6553 C.ar    1  UNL1        0.0360
     28 O          62.4531   82.8498   11.6973 O.3     1  UNL1       -0.4683
     29 C          63.4865   82.0026   11.0157 C.3     1  UNL1        0.2526
     30 O          63.7268   83.5702   14.3161 O.3     1  UNL1       -0.4654
     31 C          62.6306   82.8145   15.0071 C.3     1  UNL1        0.2528
     32 O          64.3234   86.4401   14.9549 O.3     1  UNL1       -0.4683
     33 C          63.5901   86.1901   16.2394 C.3     1  UNL1        0.2526
@<TRIPOS>BOND
     1    15    16    1
     2    16     9    1
     3     9    10   ar
     4    10    11   ar
     5    11     8    1
     6     1     8    1
     7     1     2    1
     8     2     3    1
     9     3     4    1
    10     4     5    1
    11     4     6    1
    12     6    21    1
    13    21    22    1
    14    22    23   ar
    15    23    24   ar
    16    24    28    1
    17    28    29    1
    18    24    25   ar
    19    25    30    1
    20    30    31    1
    21    25    26   ar
    22    26    32    1
    23    32    33    1
    24    26    27   ar
    25    11    12   ar
    26    12    13   ar
    27    13    17    1
    28    17    18    1
    29    13    14   ar
    30    14    19    1
    31    19    20    1
    32    14     9   ar
    33     6     1    1
    34    27    22   ar
    35     5     7    1
