@<TRIPOS>MOLECULE
*****
 42 46 0 0 0
SMALL
GASTEIGER

@<TRIPOS>ATOM
      1 C          60.4989   88.4393    8.7073 C.ar    1  UNL1        0.2400
      2 N          60.2004   89.8240    9.2010 N.ar    1  UNL1       -0.2090
      3 C          61.0619   90.4443   10.2608 C.ar    1  UNL1        0.1021
      4 C          62.2219   89.6801   10.8268 C.ar    1  UNL1        0.0208
      5 C          62.5204   88.2955   10.3331 C.ar    1  UNL1        0.0221
      6 C          61.6590   87.6751    9.2734 C.ar    1  UNL1        0.1178
      7 C          63.0834   90.3005   11.8865 C.ar    1  UNL1        0.0047
      8 C          62.9701   89.8403   13.3096 C.ar    1  UNL1        0.0385
      9 C          63.8316   90.4606   14.3693 C.ar    1  UNL1        0.1560
     10 C          64.8064   91.5412   14.0059 C.ar    1  UNL1        0.1191
     11 N          65.6679   92.1616   15.0656 N.ar    1  UNL1       -0.2109
     12 C          66.6427   93.2421   14.7022 C.ar    1  UNL1        0.2134
     13 N          67.5042   93.8625   15.7618 N.pl3   1  UNL1       -0.3275
     14 N          66.7560   93.7023   13.2789 N.ar    1  UNL1       -0.2184
     15 C          65.8945   93.0820   12.2193 C.ar    1  UNL1        0.0637
     16 C          66.0079   93.5422   10.7962 C.3     1  UNL1        0.0522
     17 C          64.9197   92.0014   12.5827 C.ar    1  UNL1        0.0344
     18 C          64.0582   91.3810   11.5231 C.ar    1  UNL1        0.0029
     19 H          67.4298   93.5604   16.6959 H       1  UNL1        0.1452
     20 H          68.1440   94.5717   15.5233 H       1  UNL1        0.1452
     21 O          63.7183   90.0004   15.7925 O.3     1  UNL1       -0.4775
     22 C          63.6175   88.5360   16.1015 C.3     1  UNL1        0.1710
     23 C          62.8547   88.0748   17.3079 C.3     1  UNL1        0.0756
     24 C          62.7540   86.6104   17.6169 C.3     1  UNL1        0.1459
     25 O          63.4160   85.6073   16.7193 O.3     1  UNL1       -0.3535
     26 C          64.1788   86.0685   15.5129 C.3     1  UNL1        0.1459
     27 C          64.2795   87.5329   15.2040 C.3     1  UNL1        0.0756
     28 C          58.7066   86.6968    7.9998 C.3     1  UNL1        0.2543
     29 O          59.6375   87.8190    7.6476 O.3     1  UNL1       -0.4553
     30 N          61.9575   86.2905    8.7797 N.pl3   1  UNL1       -0.2104
     31 H          61.8441   86.0727    7.8263 H       1  UNL1        0.1739
     32 S          62.4287   85.2377    9.7385 S.O2    1  UNL1        0.0759
     33 O          63.5788   84.9235    8.8283 O.2     1  UNL1       -0.1499
     34 O          61.2786   85.5519   10.6488 O.2     1  UNL1       -0.1499
     35 C          62.9000   84.1848   10.6974 C.ar    1  UNL1        0.1526
     36 C          63.0152   82.7584   10.2479 C.ar    1  UNL1        0.0248
     37 C          63.4865   81.7056   11.2067 C.ar    1  UNL1        0.0312
     38 C          63.8426   82.0791   12.6151 C.ar    1  UNL1        0.1425
     39 F          64.3139   81.0262   13.5740 F       1  UNL1       -0.2041
     40 C          63.7274   83.5055   13.0646 C.ar    1  UNL1        0.0606
     41 C          63.2561   84.5584   12.1058 C.ar    1  UNL1        0.1611
     42 F          63.1409   85.9848   12.5554 F       1  UNL1       -0.2027
@<TRIPOS>BOND
     1    28    29    1
     2    29     1    1
     3     1     2   ar
     4     2     3   ar
     5     3     4   ar
     6     4     7    1
     7     7     8   ar
     8     8     9   ar
     9     9    21    1
    10    21    22    1
    11    22    23    1
    12    23    24    1
    13    24    25    1
    14    25    26    1
    15    26    27    1
    16     9    10   ar
    17    10    11   ar
    18    11    12   ar
    19    12    13    1
    20    12    14   ar
    21    14    15   ar
    22    15    16    1
    23    15    17   ar
    24    17    18   ar
    25     4     5   ar
    26     5     6   ar
    27     6    30    1
    28    30    32    1
    29    32    33    2
    30    32    34    2
    31    32    35    1
    32    35    36   ar
    33    36    37   ar
    34    37    38   ar
    35    38    39    1
    36    38    40   ar
    37    40    41   ar
    38    41    42    1
    39     6     1   ar
    40    41    35   ar
    41    18     7   ar
    42    27    22    1
    43    17    10   ar
    44    13    19    1
    45    13    20    1
    46    30    31    1
@<TRIPOS>MOLECULE
*****
 42 46 0 0 0
SMALL
GASTEIGER

@<TRIPOS>ATOM
      1 C          60.3829   88.6800    9.6392 C.ar    1  UNL1        0.2400
      2 N          60.1813   90.1057   10.0596 N.ar    1  UNL1       -0.2090
      3 C          61.2897   90.8498   10.7438 C.ar    1  UNL1        0.1021
      4 C          62.5996   90.1682   11.0073 C.ar    1  UNL1        0.0208
      5 C          62.8012   88.7425   10.5869 C.ar    1  UNL1        0.0221
      6 C          61.6929   87.9984    9.9028 C.ar    1  UNL1        0.1178
      7 C          63.7080   90.9122   11.6915 C.ar    1  UNL1        0.0047
      8 C          64.7419   91.6323   10.8776 C.ar    1  UNL1        0.0385
      9 C          65.8502   92.3763   11.5617 C.ar    1  UNL1        0.1560
     10 C          65.9246   92.4002   13.0597 C.ar    1  UNL1        0.1191
     11 N          67.0330   93.1443   13.7438 N.ar    1  UNL1       -0.2109
     12 C          67.1073   93.1682   15.2418 C.ar    1  UNL1        0.2134
     13 N          68.2156   93.9122   15.9259 N.pl3   1  UNL1       -0.3275
     14 N          66.0733   92.4481   16.0556 N.ar    1  UNL1       -0.2184
     15 C          64.9650   91.7041   15.3715 C.ar    1  UNL1        0.0637
     16 C          63.9311   90.9840   16.1854 C.3     1  UNL1        0.0522
     17 C          64.8907   91.6802   13.8735 C.ar    1  UNL1        0.0344
     18 C          63.7823   90.9361   13.1894 C.ar    1  UNL1        0.0029
     19 H          68.8943   94.3849   15.3917 H       1  UNL1        0.1452
     20 H          68.2644   93.9279   16.9090 H       1  UNL1        0.1452
     21 O          66.8842   93.0965   10.7479 O.3     1  UNL1       -0.4775
     22 C          66.5179   94.3492   10.0086 C.3     1  UNL1        0.1710
     23 C          67.1311   94.6366    8.6701 C.3     1  UNL1        0.0756
     24 C          66.7648   95.8893    7.9308 C.3     1  UNL1        0.1459
     25 O          65.7853   96.8546    8.5301 O.3     1  UNL1       -0.3535
     26 C          65.1722   96.5671    9.8685 C.3     1  UNL1        0.1459
     27 C          65.5385   95.3144   10.6078 C.3     1  UNL1        0.0756
     28 C          59.0399   88.1247    7.4857 C.3     1  UNL1        0.2543
     29 O          59.2746   87.9360    8.9551 O.3     1  UNL1       -0.4553
     30 N          61.8945   86.5727    9.4823 N.pl3   1  UNL1       -0.2104
     31 H          61.7509   86.3112    8.5441 H       1  UNL1        0.1739
     32 S          62.3150   85.5455   10.4912 S.O2    1  UNL1        0.0759
     33 O          61.2745   86.0553   11.4439 O.2     1  UNL1       -0.1499
     34 O          63.3554   85.0357    9.5386 O.2     1  UNL1       -0.1499
     35 C          62.7354   84.5183   11.5003 C.ar    1  UNL1        0.1526
     36 C          62.5056   83.0613   11.2276 C.ar    1  UNL1        0.0248
     37 C          62.9260   82.0340   12.2365 C.ar    1  UNL1        0.0312
     38 C          63.5762   82.4638   13.5181 C.ar    1  UNL1        0.1425
     39 F          63.9966   81.4365   14.5272 F       1  UNL1       -0.2041
     40 C          63.8059   83.9208   13.7908 C.ar    1  UNL1        0.0606
     41 C          63.3856   84.9480   12.7819 C.ar    1  UNL1        0.1611
     42 F          63.6153   86.4050   13.0545 F       1  UNL1       -0.2027
@<TRIPOS>BOND
     1    28    29    1
     2    29     1    1
     3     1     2   ar
     4     2     3   ar
     5     3     4   ar
     6     4     7    1
     7     7     8   ar
     8     8     9   ar
     9     9    21    1
    10    21    22    1
    11    22    23    1
    12    23    24    1
    13    24    25    1
    14    25    26    1
    15    26    27    1
    16     9    10   ar
    17    10    11   ar
    18    11    12   ar
    19    12    13    1
    20    12    14   ar
    21    14    15   ar
    22    15    16    1
    23    15    17   ar
    24    17    18   ar
    25     4     5   ar
    26     5     6   ar
    27     6    30    1
    28    30    32    1
    29    32    33    2
    30    32    34    2
    31    32    35    1
    32    35    36   ar
    33    36    37   ar
    34    37    38   ar
    35    38    39    1
    36    38    40   ar
    37    40    41   ar
    38    41    42    1
    39     6     1   ar
    40    41    35   ar
    41    18     7   ar
    42    27    22    1
    43    17    10   ar
    44    13    19    1
    45    13    20    1
    46    30    31    1
@<TRIPOS>MOLECULE
*****
 42 46 0 0 0
SMALL
GASTEIGER

@<TRIPOS>ATOM
      1 C          63.0852   87.2942   17.1052 C.ar    1  UNL1        0.2400
      2 N          62.5650   88.7010   17.1201 N.ar    1  UNL1       -0.2090
      3 C          62.8768   89.6281   15.9827 C.ar    1  UNL1        0.1021
      4 C          63.7088   89.1482   14.8305 C.ar    1  UNL1        0.0208
      5 C          64.2290   87.7414   14.8156 C.ar    1  UNL1        0.0221
      6 C          63.9172   86.8144   15.9529 C.ar    1  UNL1        0.1178
      7 C          64.0206   90.0752   13.6932 C.ar    1  UNL1        0.0047
      8 C          63.2610   89.9634   12.4046 C.ar    1  UNL1        0.0385
      9 C          63.5728   90.8904   11.2674 C.ar    1  UNL1        0.1560
     10 C          64.6443   91.9292   11.4187 C.ar    1  UNL1        0.1191
     11 N          64.9561   92.8562   10.2813 N.ar    1  UNL1       -0.2109
     12 C          66.0275   93.8950   10.4326 C.ar    1  UNL1        0.2134
     13 N          66.3393   94.8220    9.2953 N.pl3   1  UNL1       -0.3275
     14 N          66.7871   94.0068   11.7212 N.ar    1  UNL1       -0.2184
     15 C          66.4753   93.0798   12.8585 C.ar    1  UNL1        0.0637
     16 C          67.2349   93.1917   14.1471 C.3     1  UNL1        0.0522
     17 C          65.4039   92.0410   12.7072 C.ar    1  UNL1        0.0344
     18 C          65.0920   91.1140   13.8445 C.ar    1  UNL1        0.0029
     19 H          65.8408   94.7486    8.4496 H       1  UNL1        0.1452
     20 H          67.0426   95.5038    9.3946 H       1  UNL1        0.1452
     21 O          62.8132   90.7786    9.9787 O.3     1  UNL1       -0.4775
     22 C          61.9701   89.5679    9.7077 C.3     1  UNL1        0.1710
     23 C          62.5475   88.1956    9.8909 C.3     1  UNL1        0.0756
     24 C          61.7044   86.9849    9.6199 C.3     1  UNL1        0.1459
     25 O          60.2839   87.1466    9.1657 O.3     1  UNL1       -0.3535
     26 C          59.7066   88.5188    8.9826 C.3     1  UNL1        0.1459
     27 C          60.5497   89.7295    9.2536 C.3     1  UNL1        0.0756
     28 C          62.6469   86.9064   19.6364 C.3     1  UNL1        0.2543
     29 O          62.7734   86.3672   18.2424 O.3     1  UNL1       -0.4553
     30 N          64.4374   85.4076   15.9380 N.pl3   1  UNL1       -0.2104
     31 H          64.9837   85.0768   16.6873 H       1  UNL1        0.1739
     32 S          64.1253   84.5047   14.7816 S.O2    1  UNL1        0.0759
     33 O          65.5603   84.5629   14.3488 O.2     1  UNL1       -0.1499
     34 O          62.6903   84.4465   15.2143 O.2     1  UNL1       -0.1499
     35 C          63.8132   83.6018   13.6250 C.ar    1  UNL1        0.1526
     36 C          63.8770   82.1131   13.7973 C.ar    1  UNL1        0.0248
     37 C          63.5649   81.2102   12.6409 C.ar    1  UNL1        0.0312
     38 C          63.1890   81.7961   11.3122 C.ar    1  UNL1        0.1425
     39 F          62.8769   80.8932   10.1557 F       1  UNL1       -0.2041
     40 C          63.1253   83.2848   11.1399 C.ar    1  UNL1        0.0606
     41 C          63.4373   84.1877   12.2963 C.ar    1  UNL1        0.1611
     42 F          63.3736   85.6764   12.1241 F       1  UNL1       -0.2027
@<TRIPOS>BOND
     1    28    29    1
     2    29     1    1
     3     1     2   ar
     4     2     3   ar
     5     3     4   ar
     6     4     7    1
     7     7     8   ar
     8     8     9   ar
     9     9    21    1
    10    21    22    1
    11    22    23    1
    12    23    24    1
    13    24    25    1
    14    25    26    1
    15    26    27    1
    16     9    10   ar
    17    10    11   ar
    18    11    12   ar
    19    12    13    1
    20    12    14   ar
    21    14    15   ar
    22    15    16    1
    23    15    17   ar
    24    17    18   ar
    25     4     5   ar
    26     5     6   ar
    27     6    30    1
    28    30    32    1
    29    32    33    2
    30    32    34    2
    31    32    35    1
    32    35    36   ar
    33    36    37   ar
    34    37    38   ar
    35    38    39    1
    36    38    40   ar
    37    40    41   ar
    38    41    42    1
    39     6     1   ar
    40    41    35   ar
    41    18     7   ar
    42    27    22    1
    43    17    10   ar
    44    13    19    1
    45    13    20    1
    46    30    31    1
