@<TRIPOS>MOLECULE
*****
 28 31 0 0 0
SMALL
GASTEIGER

@<TRIPOS>ATOM
      1 C          63.7118   88.3493   15.7025 C.ar    1  UNL1        0.0284
      2 C          64.3033   87.7575   14.4576 C.ar    1  UNL1        0.0027
      3 C          64.5044   86.2747   14.3542 C.ar    1  UNL1        0.0339
      4 C          64.1139   85.3835   15.4959 C.ar    1  UNL1        0.1311
      5 N          63.5224   85.9753   16.7409 N.ar    1  UNL1       -0.2035
      6 C          63.3213   87.4581   16.8442 C.ar    1  UNL1        0.2196
      7 F          62.7298   88.0498   18.0892 F       1  UNL1       -0.1835
      8 N          64.3150   83.9006   15.3925 N.pl3   1  UNL1       -0.3143
      9 H          65.1350   83.4890   15.7495 H       1  UNL1        0.1485
     10 C          63.2667   83.0449   14.7453 C.3     1  UNL1        0.1192
     11 C          63.4082   82.6451   13.3065 C.ar    1  UNL1        0.0434
     12 C          64.2456   83.4726   12.3770 C.ar    1  UNL1        0.0028
     13 C          64.3871   83.0728   10.9382 C.ar    1  UNL1        0.0206
     14 C          63.6912   81.8455   10.4289 C.ar    1  UNL1        0.1013
     15 N          62.8538   81.0180   11.3585 N.ar    1  UNL1       -0.2167
     16 C          62.7123   81.4178   12.7972 C.ar    1  UNL1        0.2198
     17 F          61.8749   80.5902   13.7267 F       1  UNL1       -0.1835
     18 C          63.5107   89.8321   15.8058 C.3     1  UNL1        0.0603
     19 C          61.9981   90.0101   10.1074 C.3     1  UNL1        0.0307
     20 C          62.9852   90.6548   11.0348 C.2     1  UNL1        0.0074
     21 C          63.9508   91.6758   10.5102 C.2     1  UNL1        0.2278
     22 N          64.9379   92.3205   11.4376 N.2     1  UNL1       -0.0314
     23 C          64.9594   91.9443   12.8894 C.2     1  UNL1        0.3716
     24 N          65.8116   92.4072   14.0337 N.2     1  UNL1       -0.0311
     25 C          65.3726   91.6723   15.2655 C.2     1  UNL1        0.2319
     26 C          64.2492   90.7552   14.8825 C.2     1  UNL1        0.0328
     27 C          63.9938   90.9234   13.4139 C.2     1  UNL1        0.0704
     28 C          63.0067   90.2786   12.4866 C.3     1  UNL1        0.0598
@<TRIPOS>BOND
     1    19    20    1
     2    20    21    2
     3    21    22    1
     4    22    23    2
     5    23    24    1
     6    24    25    2
     7    25    26    1
     8    26    18    1
     9    18     1    1
    10     1     2   ar
    11     2     3   ar
    12     3     4   ar
    13     4     8    1
    14     8    10    1
    15    10    11    1
    16    11    12   ar
    17    12    13   ar
    18    13    14   ar
    19    14    15   ar
    20    15    16   ar
    21    16    17    1
    22     4     5   ar
    23     5     6   ar
    24     6     7    1
    25    26    27    2
    26    27    28    1
    27    28    20    1
    28    27    23    1
    29     6     1   ar
    30    16    11   ar
    31     8     9    1
@<TRIPOS>MOLECULE
*****
 28 31 0 0 0
SMALL
GASTEIGER

@<TRIPOS>ATOM
      1 C          62.3330   88.5148   11.3243 C.ar    1  UNL1        0.0284
      2 C          63.1470   88.4956   12.5840 C.ar    1  UNL1        0.0027
      3 C          63.9112   89.7168   13.0019 C.ar    1  UNL1        0.0339
      4 C          63.8615   90.9573   12.1599 C.ar    1  UNL1        0.1311
      5 N          63.0474   90.9764   10.9001 N.ar    1  UNL1       -0.2035
      6 C          62.2831   89.7552   10.4823 C.ar    1  UNL1        0.2196
      7 F          61.4691   89.7745    9.2225 F       1  UNL1       -0.1835
      8 N          64.6257   92.1785   12.5778 N.pl3   1  UNL1       -0.3143
      9 H          64.1455   92.9652   12.9238 H       1  UNL1        0.1485
     10 C          66.1215   92.2010   12.4684 C.3     1  UNL1        0.1192
     11 C          66.7790   92.9078   11.3203 C.ar    1  UNL1        0.0434
     12 C          67.5337   92.1225   10.2891 C.ar    1  UNL1        0.0028
     13 C          68.1912   92.8293    9.1410 C.ar    1  UNL1        0.0206
     14 C          68.0939   94.3216    9.0241 C.ar    1  UNL1        0.1013
     15 N          67.3392   95.1070   10.0555 N.ar    1  UNL1       -0.2167
     16 C          66.6818   94.4001   11.2035 C.ar    1  UNL1        0.2198
     17 F          65.9270   95.1856   12.2348 F       1  UNL1       -0.1835
     18 C          61.5687   87.2936   10.9064 C.3     1  UNL1        0.0603
     19 C          63.8629   83.0101   14.2501 C.3     1  UNL1        0.0307
     20 C          63.7470   83.3705   12.7987 C.2     1  UNL1        0.0074
     21 C          64.3421   82.4741   11.7535 C.2     1  UNL1        0.2278
     22 N          64.2262   82.8345   10.3021 N.2     1  UNL1       -0.0314
     23 C          63.5152   84.0913    9.8958 C.2     1  UNL1        0.3716
     24 N          63.2451   84.7023    8.5528 N.2     1  UNL1       -0.0311
     25 C          62.4830   85.9762    8.7679 C.2     1  UNL1        0.2319
     26 C          62.2822   86.1526   10.2439 C.2     1  UNL1        0.0328
     27 C          62.9202   84.9876   10.9409 C.2     1  UNL1        0.0704
     28 C          63.0360   84.6272   12.3924 C.3     1  UNL1        0.0598
@<TRIPOS>BOND
     1    19    20    1
     2    20    21    2
     3    21    22    1
     4    22    23    2
     5    23    24    1
     6    24    25    2
     7    25    26    1
     8    26    18    1
     9    18     1    1
    10     1     2   ar
    11     2     3   ar
    12     3     4   ar
    13     4     8    1
    14     8    10    1
    15    10    11    1
    16    11    12   ar
    17    12    13   ar
    18    13    14   ar
    19    14    15   ar
    20    15    16   ar
    21    16    17    1
    22     4     5   ar
    23     5     6   ar
    24     6     7    1
    25    26    27    2
    26    27    28    1
    27    28    20    1
    28    27    23    1
    29     6     1   ar
    30    16    11   ar
    31     8     9    1
@<TRIPOS>MOLECULE
*****
 28 31 0 0 0
SMALL
GASTEIGER

@<TRIPOS>ATOM
      1 C          62.1474   88.2045   11.1727 C.ar    1  UNL1        0.0284
      2 C          63.0266   88.0558   12.3788 C.ar    1  UNL1        0.0027
      3 C          63.7072   89.2577   12.9637 C.ar    1  UNL1        0.0339
      4 C          63.5086   90.6085   12.3424 C.ar    1  UNL1        0.1311
      5 N          62.6292   90.7572   11.1362 N.ar    1  UNL1       -0.2035
      6 C          61.9487   89.5553   10.5513 C.ar    1  UNL1        0.2196
      7 F          61.0694   89.7041    9.3452 F       1  UNL1       -0.1835
      8 N          64.1891   91.8104   12.9273 N.pl3   1  UNL1       -0.3143
      9 H          63.7034   92.3955   13.5526 H       1  UNL1        0.1485
     10 C          65.6098   92.1209   12.5595 C.3     1  UNL1        0.1192
     11 C          66.6377   92.3144   13.6347 C.ar    1  UNL1        0.0434
     12 C          66.2165   92.7603   15.0035 C.ar    1  UNL1        0.0028
     13 C          67.2445   92.9538   16.0786 C.ar    1  UNL1        0.0206
     14 C          68.6936   92.7014   15.7850 C.ar    1  UNL1        0.1013
     15 N          69.1148   92.2555   14.4160 N.ar    1  UNL1       -0.2167
     16 C          68.0869   92.0621   13.3410 C.ar    1  UNL1        0.2198
     17 F          68.5081   91.6162   11.9720 F       1  UNL1       -0.1835
     18 C          61.4668   87.0025   10.5878 C.3     1  UNL1        0.0603
     19 C          63.5835   82.9621   14.3276 C.3     1  UNL1        0.0307
     20 C          63.5964   83.2565   12.8568 C.2     1  UNL1        0.0074
     21 C          64.3240   82.3431   11.9154 C.2     1  UNL1        0.2278
     22 N          64.3368   82.6376   10.4446 N.2     1  UNL1       -0.0314
     23 C          63.6221   83.8453    9.9153 C.2     1  UNL1        0.3716
     24 N          63.4615   84.3880    8.5261 N.2     1  UNL1       -0.0311
     25 C          62.6345   85.6367    8.6089 C.2     1  UNL1        0.2319
     26 C          62.2841   85.8659   10.0493 C.2     1  UNL1        0.0328
     27 C          62.8944   84.7587   10.8566 C.2     1  UNL1        0.0704
     28 C          62.8816   84.4643   12.3274 C.3     1  UNL1        0.0598
@<TRIPOS>BOND
     1    19    20    1
     2    20    21    2
     3    21    22    1
     4    22    23    2
     5    23    24    1
     6    24    25    2
     7    25    26    1
     8    26    18    1
     9    18     1    1
    10     1     2   ar
    11     2     3   ar
    12     3     4   ar
    13     4     8    1
    14     8    10    1
    15    10    11    1
    16    11    12   ar
    17    12    13   ar
    18    13    14   ar
    19    14    15   ar
    20    15    16   ar
    21    16    17    1
    22     4     5   ar
    23     5     6   ar
    24     6     7    1
    25    26    27    2
    26    27    28    1
    27    28    20    1
    28    27    23    1
    29     6     1   ar
    30    16    11   ar
    31     8     9    1
@<TRIPOS>MOLECULE
*****
 28 31 0 0 0
SMALL
GASTEIGER

@<TRIPOS>ATOM
      1 C          62.2352   88.3977   11.1544 C.ar    1  UNL1        0.0284
      2 C          61.9411   89.5666   10.2616 C.ar    1  UNL1        0.0027
      3 C          62.6174   90.8835   10.5029 C.ar    1  UNL1        0.0339
      4 C          63.5878   91.0317   11.6370 C.ar    1  UNL1        0.1311
      5 N          63.8820   89.8627   12.5299 N.ar    1  UNL1       -0.2035
      6 C          63.2057   88.5457   12.2886 C.ar    1  UNL1        0.2196
      7 F          63.4999   87.3769   13.1815 F       1  UNL1       -0.1835
      8 N          64.2641   92.3486   11.8783 N.pl3   1  UNL1       -0.3143
      9 H          63.7286   93.1422   12.1079 H       1  UNL1        0.1485
     10 C          65.7563   92.4565   11.7698 C.3     1  UNL1        0.1192
     11 C          66.3699   93.4594   10.8384 C.ar    1  UNL1        0.0434
     12 C          65.9381   94.8948   10.8915 C.ar    1  UNL1        0.0028
     13 C          66.5517   95.8977    9.9600 C.ar    1  UNL1        0.0206
     14 C          67.5974   95.4651    8.9754 C.ar    1  UNL1        0.1013
     15 N          68.0293   94.0296    8.9223 N.ar    1  UNL1       -0.2167
     16 C          67.4156   93.0268    9.8537 C.ar    1  UNL1        0.2198
     17 F          67.8476   91.5912    9.8005 F       1  UNL1       -0.1835
     18 C          61.5590   87.0807   10.9131 C.3     1  UNL1        0.0603
     19 C          63.7595   82.7430   14.2498 C.3     1  UNL1        0.0307
     20 C          63.6984   83.1353   12.8033 C.2     1  UNL1        0.0074
     21 C          64.3439   82.2684   11.7632 C.2     1  UNL1        0.2278
     22 N          64.2829   82.6608   10.3167 N.2     1  UNL1       -0.0314
     23 C          63.5763   83.9200    9.9103 C.2     1  UNL1        0.3716
     24 N          63.3543   84.5590    8.5716 N.2     1  UNL1       -0.0311
     25 C          62.5716   85.8208    8.7842 C.2     1  UNL1        0.2319
     26 C          62.3098   85.9616   10.2545 C.2     1  UNL1        0.0328
     27 C          62.9308   84.7868   10.9504 C.2     1  UNL1        0.0704
     28 C          62.9919   84.3945   12.3969 C.3     1  UNL1        0.0598
@<TRIPOS>BOND
     1    19    20    1
     2    20    21    2
     3    21    22    1
     4    22    23    2
     5    23    24    1
     6    24    25    2
     7    25    26    1
     8    26    18    1
     9    18     1    1
    10     1     2   ar
    11     2     3   ar
    12     3     4   ar
    13     4     8    1
    14     8    10    1
    15    10    11    1
    16    11    12   ar
    17    12    13   ar
    18    13    14   ar
    19    14    15   ar
    20    15    16   ar
    21    16    17    1
    22     4     5   ar
    23     5     6   ar
    24     6     7    1
    25    26    27    2
    26    27    28    1
    27    28    20    1
    28    27    23    1
    29     6     1   ar
    30    16    11   ar
    31     8     9    1
@<TRIPOS>MOLECULE
*****
 28 31 0 0 0
SMALL
GASTEIGER

@<TRIPOS>ATOM
      1 C          63.7416   87.8760   15.6732 C.ar    1  UNL1        0.0284
      2 C          64.2913   87.2029   14.4507 C.ar    1  UNL1        0.0027
      3 C          64.3220   85.7055   14.3687 C.ar    1  UNL1        0.0339
      4 C          63.8030   84.8811   15.5093 C.ar    1  UNL1        0.1311
      5 N          63.2533   85.5543   16.7319 N.ar    1  UNL1       -0.2035
      6 C          63.2226   87.0517   16.8139 C.ar    1  UNL1        0.2196
      7 F          62.6729   87.7247   18.0366 F       1  UNL1       -0.1835
      8 N          63.8337   83.3836   15.4273 N.pl3   1  UNL1       -0.3143
      9 H          64.5380   82.8794   15.8952 H       1  UNL1        0.1485
     10 C          62.7912   82.6545   14.6325 C.3     1  UNL1        0.1192
     11 C          63.0633   82.2772   13.2065 C.ar    1  UNL1        0.0434
     12 C          63.7454   83.2495   12.2904 C.ar    1  UNL1        0.0028
     13 C          64.0174   82.8722   10.8643 C.ar    1  UNL1        0.0206
     14 C          63.6073   81.5225   10.3543 C.ar    1  UNL1        0.1013
     15 N          62.9251   80.5502   11.2705 N.ar    1  UNL1       -0.2167
     16 C          62.6531   80.9275   12.6964 C.ar    1  UNL1        0.2198
     17 F          61.9710   79.9551   13.6125 F       1  UNL1       -0.1835
     18 C          63.7109   89.3734   15.7552 C.3     1  UNL1        0.0603
     19 C          67.9442   93.4786   15.6175 C.3     1  UNL1        0.0307
     20 C          66.8738   92.9293   14.7217 C.2     1  UNL1        0.0074
     21 C          66.6945   93.4844   13.3397 C.2     1  UNL1        0.2278
     22 N          65.6241   92.9352   12.4439 N.2     1  UNL1       -0.0314
     23 C          64.7329   91.8309   12.9300 C.2     1  UNL1        0.3716
     24 N          63.6004   91.0945   12.2780 N.2     1  UNL1       -0.0311
     25 C          63.0797   90.0843   13.2570 C.2     1  UNL1        0.2319
     26 C          63.8904   90.1963   14.5140 C.2     1  UNL1        0.0328
     27 C          64.9122   91.2759   14.3119 C.2     1  UNL1        0.0704
     28 C          65.9826   91.8251   15.2077 C.3     1  UNL1        0.0598
@<TRIPOS>BOND
     1    19    20    1
     2    20    21    2
     3    21    22    1
     4    22    23    2
     5    23    24    1
     6    24    25    2
     7    25    26    1
     8    26    18    1
     9    18     1    1
    10     1     2   ar
    11     2     3   ar
    12     3     4   ar
    13     4     8    1
    14     8    10    1
    15    10    11    1
    16    11    12   ar
    17    12    13   ar
    18    13    14   ar
    19    14    15   ar
    20    15    16   ar
    21    16    17    1
    22     4     5   ar
    23     5     6   ar
    24     6     7    1
    25    26    27    2
    26    27    28    1
    27    28    20    1
    28    27    23    1
    29     6     1   ar
    30    16    11   ar
    31     8     9    1
@<TRIPOS>MOLECULE
*****
 28 31 0 0 0
SMALL
GASTEIGER

@<TRIPOS>ATOM
      1 C          62.7030   84.8579    9.6550 C.ar    1  UNL1        0.0284
      2 C          61.9712   85.4442   10.8258 C.ar    1  UNL1        0.0027
      3 C          60.9968   86.5652   10.6164 C.ar    1  UNL1        0.0339
      4 C          60.7542   87.1001    9.2362 C.ar    1  UNL1        0.1311
      5 N          61.4859   86.5138    8.0653 N.ar    1  UNL1       -0.2035
      6 C          62.4603   85.3928    8.2747 C.ar    1  UNL1        0.2196
      7 F          63.1920   84.8066    7.1038 F       1  UNL1       -0.1835
      8 N          59.7798   88.2211    9.0269 N.pl3   1  UNL1       -0.3143
      9 H          58.8717   88.0292    8.6984 H       1  UNL1        0.1485
     10 C          60.1889   89.6346    9.3180 C.3     1  UNL1        0.1192
     11 C          61.1900   89.9181   10.3985 C.ar    1  UNL1        0.0434
     12 C          62.5403   90.4671   10.0446 C.ar    1  UNL1        0.0028
     13 C          63.5414   90.7507   11.1250 C.ar    1  UNL1        0.0206
     14 C          63.1922   90.4853   12.5595 C.ar    1  UNL1        0.1013
     15 N          61.8418   89.9363   12.9134 N.ar    1  UNL1       -0.2167
     16 C          60.8408   89.6528   11.8329 C.ar    1  UNL1        0.2198
     17 F          59.4904   89.1038   12.1869 F       1  UNL1       -0.1835
     18 C          63.6773   83.7369    9.8643 C.3     1  UNL1        0.0603
     19 C          64.6114   85.9925   15.2338 C.3     1  UNL1        0.0307
     20 C          64.2483   84.6785   14.6081 C.2     1  UNL1        0.0074
     21 C          64.0195   83.4740   15.4723 C.2     1  UNL1        0.2278
     22 N          63.6564   82.1600   14.8467 N.2     1  UNL1       -0.0314
     23 C          63.5221   82.0504   13.3567 C.2     1  UNL1        0.3716
     24 N          63.1783   80.8966   12.4621 N.2     1  UNL1       -0.0311
     25 C          63.1946   81.3879   11.0449 C.2     1  UNL1        0.2319
     26 C          63.5485   82.8454   11.0637 C.2     1  UNL1        0.0328
     27 C          63.7509   83.2548   12.4925 C.2     1  UNL1        0.0704
     28 C          64.1140   84.5689   13.1182 C.3     1  UNL1        0.0598
@<TRIPOS>BOND
     1    19    20    1
     2    20    21    2
     3    21    22    1
     4    22    23    2
     5    23    24    1
     6    24    25    2
     7    25    26    1
     8    26    18    1
     9    18     1    1
    10     1     2   ar
    11     2     3   ar
    12     3     4   ar
    13     4     8    1
    14     8    10    1
    15    10    11    1
    16    11    12   ar
    17    12    13   ar
    18    13    14   ar
    19    14    15   ar
    20    15    16   ar
    21    16    17    1
    22     4     5   ar
    23     5     6   ar
    24     6     7    1
    25    26    27    2
    26    27    28    1
    27    28    20    1
    28    27    23    1
    29     6     1   ar
    30    16    11   ar
    31     8     9    1
@<TRIPOS>MOLECULE
*****
 28 31 0 0 0
SMALL
GASTEIGER

@<TRIPOS>ATOM
      1 C          62.8460   84.7341   10.5230 C.ar    1  UNL1        0.0284
      2 C          62.0334   85.3813   11.6050 C.ar    1  UNL1        0.0027
      3 C          62.2652   85.0114   13.0401 C.ar    1  UNL1        0.0339
      4 C          63.3096   83.9943   13.3932 C.ar    1  UNL1        0.1311
      5 N          64.1222   83.3471   12.3111 N.ar    1  UNL1       -0.2035
      6 C          63.8905   83.7170   10.8761 C.ar    1  UNL1        0.2196
      7 F          64.7031   83.0697    9.7941 F       1  UNL1       -0.1835
      8 N          63.5414   83.6245   14.8283 N.pl3   1  UNL1       -0.3143
      9 H          63.1697   82.7863   15.1868 H       1  UNL1        0.1485
     10 C          64.3395   84.5317   15.7171 C.3     1  UNL1        0.1192
     11 C          64.0468   86.0026   15.7443 C.ar    1  UNL1        0.0434
     12 C          64.6446   86.9056   14.7064 C.ar    1  UNL1        0.0028
     13 C          64.3519   88.3765   14.7335 C.ar    1  UNL1        0.0206
     14 C          63.4614   88.9445   15.7986 C.ar    1  UNL1        0.1013
     15 N          62.8636   88.0414   16.8365 N.ar    1  UNL1       -0.2167
     16 C          63.1563   86.5706   16.8093 C.ar    1  UNL1        0.2198
     17 F          62.5584   85.6676   17.8473 F       1  UNL1       -0.1835
     18 C          62.6142   85.1040    9.0880 C.3     1  UNL1        0.0603
     19 C          62.8244   90.4435   11.5853 C.3     1  UNL1        0.0307
     20 C          61.9752   89.6863   10.6078 C.2     1  UNL1        0.0074
     21 C          60.7793   90.3445    9.9861 C.2     1  UNL1        0.2278
     22 N          59.9301   89.5873    9.0085 N.2     1  UNL1       -0.0314
     23 C          60.2768   88.1720    8.6527 C.2     1  UNL1        0.3716
     24 N          59.6314   87.1825    7.7285 N.2     1  UNL1       -0.0311
     25 C          60.4284   85.9127    7.7790 C.2     1  UNL1        0.2319
     26 C          61.5664   86.1175    8.7345 C.2     1  UNL1        0.0328
     27 C          61.4727   87.5139    9.2745 C.2     1  UNL1        0.0704
     28 C          62.3219   88.2710   10.2520 C.3     1  UNL1        0.0598
@<TRIPOS>BOND
     1    19    20    1
     2    20    21    2
     3    21    22    1
     4    22    23    2
     5    23    24    1
     6    24    25    2
     7    25    26    1
     8    26    18    1
     9    18     1    1
    10     1     2   ar
    11     2     3   ar
    12     3     4   ar
    13     4     8    1
    14     8    10    1
    15    10    11    1
    16    11    12   ar
    17    12    13   ar
    18    13    14   ar
    19    14    15   ar
    20    15    16   ar
    21    16    17    1
    22     4     5   ar
    23     5     6   ar
    24     6     7    1
    25    26    27    2
    26    27    28    1
    27    28    20    1
    28    27    23    1
    29     6     1   ar
    30    16    11   ar
    31     8     9    1
@<TRIPOS>MOLECULE
*****
 28 31 0 0 0
SMALL
GASTEIGER

@<TRIPOS>ATOM
      1 C          62.5907   89.3185   11.7274 C.ar    1  UNL1        0.0284
      2 C          61.8010   88.8399   10.5453 C.ar    1  UNL1        0.0027
      3 C          61.6776   87.3704   10.2710 C.ar    1  UNL1        0.0339
      4 C          62.3438   86.3794   11.1787 C.ar    1  UNL1        0.1311
      5 N          63.1335   86.8580   12.3609 N.ar    1  UNL1       -0.2035
      6 C          63.2569   88.3275   12.6352 C.ar    1  UNL1        0.2196
      7 F          64.0466   88.8059   13.8174 F       1  UNL1       -0.1835
      8 N          62.2203   84.9099   10.9043 N.pl3   1  UNL1       -0.3143
      9 H          61.4287   84.5618   10.4337 H       1  UNL1        0.1485
     10 C          63.3028   83.9707   11.3471 C.3     1  UNL1        0.1192
     11 C          62.9659   82.7919   12.2113 C.ar    1  UNL1        0.0434
     12 C          62.9778   81.4087   11.6310 C.ar    1  UNL1        0.0028
     13 C          62.6408   80.2299   12.4952 C.ar    1  UNL1        0.0206
     14 C          62.2920   80.4342   13.9397 C.ar    1  UNL1        0.1013
     15 N          62.2801   81.8175   14.5200 N.ar    1  UNL1       -0.2167
     16 C          62.6170   82.9962   13.6558 C.ar    1  UNL1        0.2198
     17 F          62.6051   84.3794   14.2361 F       1  UNL1       -0.1835
     18 C          62.7142   90.7880   12.0018 C.3     1  UNL1        0.0603
     19 C          66.2070   92.4090   16.4699 C.3     1  UNL1        0.0307
     20 C          66.1804   92.4847   14.9721 C.2     1  UNL1        0.0074
     21 C          67.3098   93.1403   14.2341 C.2     1  UNL1        0.2278
     22 N          67.2832   93.2161   12.7362 N.2     1  UNL1       -0.0314
     23 C          66.1272   92.6363   11.9764 C.2     1  UNL1        0.3716
     24 N          65.8268   92.5621   10.5087 N.2     1  UNL1       -0.0311
     25 C          64.5117   91.8607   10.3395 C.2     1  UNL1        0.2319
     26 C          63.9993   91.5014   11.7027 C.2     1  UNL1        0.0328
     27 C          64.9978   91.9807   12.7144 C.2     1  UNL1        0.0704
     28 C          65.0244   91.9050   14.2122 C.3     1  UNL1        0.0598
@<TRIPOS>BOND
     1    19    20    1
     2    20    21    2
     3    21    22    1
     4    22    23    2
     5    23    24    1
     6    24    25    2
     7    25    26    1
     8    26    18    1
     9    18     1    1
    10     1     2   ar
    11     2     3   ar
    12     3     4   ar
    13     4     8    1
    14     8    10    1
    15    10    11    1
    16    11    12   ar
    17    12    13   ar
    18    13    14   ar
    19    14    15   ar
    20    15    16   ar
    21    16    17    1
    22     4     5   ar
    23     5     6   ar
    24     6     7    1
    25    26    27    2
    26    27    28    1
    27    28    20    1
    28    27    23    1
    29     6     1   ar
    30    16    11   ar
    31     8     9    1
@<TRIPOS>MOLECULE
*****
 28 31 0 0 0
SMALL
GASTEIGER

@<TRIPOS>ATOM
      1 C          63.3473   88.8478   13.1634 C.ar    1  UNL1        0.0284
      2 C          64.1136   88.7664   14.4503 C.ar    1  UNL1        0.0027
      3 C          64.5744   87.4354   14.9659 C.ar    1  UNL1        0.0339
      4 C          64.2689   86.1856   14.1946 C.ar    1  UNL1        0.1311
      5 N          63.5026   86.2671   12.9077 N.ar    1  UNL1       -0.2035
      6 C          63.0417   87.5981   12.3921 C.ar    1  UNL1        0.2196
      7 F          62.2754   87.6794   11.1052 F       1  UNL1       -0.1835
      8 N          64.7297   84.8546   14.7103 N.pl3   1  UNL1       -0.3143
      9 H          65.6405   84.7547   15.0705 H       1  UNL1        0.1485
     10 C          63.8029   83.6757   14.6771 C.3     1  UNL1        0.1192
     11 C          63.6277   82.8949   13.4083 C.ar    1  UNL1        0.0434
     12 C          64.4377   83.2438   12.1950 C.ar    1  UNL1        0.0028
     13 C          64.2625   82.4630   10.9263 C.ar    1  UNL1        0.0206
     14 C          63.2773   81.3333   10.8708 C.ar    1  UNL1        0.1013
     15 N          62.4672   80.9844   12.0842 N.ar    1  UNL1       -0.2167
     16 C          62.6425   81.7652   13.3528 C.ar    1  UNL1        0.2198
     17 F          61.8324   81.4162   14.5662 F       1  UNL1       -0.1835
     18 C          62.8865   90.1789   12.6477 C.3     1  UNL1        0.0603
     19 C          66.7753   92.6368   16.3393 C.3     1  UNL1        0.0307
     20 C          66.4195   92.6767   14.8826 C.2     1  UNL1        0.0074
     21 C          67.1906   93.5590   13.9462 C.2     1  UNL1        0.2278
     22 N          66.8348   93.5989   12.4895 N.2     1  UNL1       -0.0314
     23 C          65.7079   92.7566   11.9693 C.2     1  UNL1        0.3716
     24 N          65.1320   92.5886   10.5945 N.2     1  UNL1       -0.0311
     25 C          64.0050   91.6026   10.6813 C.2     1  UNL1        0.2319
     26 C          63.8843   91.1611   12.1098 C.2     1  UNL1        0.0328
     27 C          64.9368   91.8744   12.9058 C.2     1  UNL1        0.0704
     28 C          65.2926   91.8344   14.3625 C.3     1  UNL1        0.0598
@<TRIPOS>BOND
     1    19    20    1
     2    20    21    2
     3    21    22    1
     4    22    23    2
     5    23    24    1
     6    24    25    2
     7    25    26    1
     8    26    18    1
     9    18     1    1
    10     1     2   ar
    11     2     3   ar
    12     3     4   ar
    13     4     8    1
    14     8    10    1
    15    10    11    1
    16    11    12   ar
    17    12    13   ar
    18    13    14   ar
    19    14    15   ar
    20    15    16   ar
    21    16    17    1
    22     4     5   ar
    23     5     6   ar
    24     6     7    1
    25    26    27    2
    26    27    28    1
    27    28    20    1
    28    27    23    1
    29     6     1   ar
    30    16    11   ar
    31     8     9    1
