@<TRIPOS>MOLECULE
*****
 36 40 0 0 0
SMALL
GASTEIGER

@<TRIPOS>ATOM
      1 C          71.2260   70.5187   14.0998 C.3     1  UNL1        0.0519
      2 C          70.9503   69.0644   14.3427 C.3     1  UNL1        0.0069
      3 C          70.9317   68.5284   15.7435 C.3     1  UNL1        0.0004
      4 C          71.1888   69.4467   16.9014 C.3     1  UNL1        0.0000
      5 C          71.3723   69.9164   18.3140 C.3     1  UNL1        0.0000
      6 C          70.9769   68.1555   17.6349 C.3     1  UNL1        0.0000
      7 C          71.4645   70.9009   16.6585 C.3     1  UNL1        0.0008
      8 C          71.4831   71.4369   15.2577 C.3     1  UNL1        0.0138
      9 C          71.7588   72.8913   15.0147 C.3     1  UNL1        0.0626
     10 C          72.0160   73.8095   16.1726 C.2     1  UNL1        0.1721
     11 O          71.9973   73.2734   17.5735 O.2     1  UNL1       -0.2914
     12 C          72.2917   75.2638   15.9297 C.2     1  UNL1        0.0292
     13 C          72.3103   75.7999   14.5288 C.2     1  UNL1       -0.0388
     14 C          72.5860   77.2542   14.2859 C.3     1  UNL1        0.0349
     15 C          72.5674   76.7181   15.6867 C.3     1  UNL1        0.0085
     16 C          72.8431   78.1724   15.4438 C.2     1  UNL1       -0.0098
     17 C          73.1188   79.6267   15.2009 C.2     1  UNL1        0.0990
     18 C          73.1374   80.1628   13.8001 C.2     1  UNL1        0.1815
     19 O          73.4131   81.6170   13.5572 O.2     1  UNL1       -0.2907
     20 C          72.8803   79.2445   12.6422 C.3     1  UNL1        0.0568
     21 C          72.6968   78.7747   11.2296 C.3     1  UNL1        0.0077
     22 C          73.0922   80.5357   11.9087 C.3     1  UNL1        0.0077
     23 C          72.6045   77.7902   12.8851 C.3     1  UNL1        0.0141
     24 C          72.3474   76.8719   11.7272 C.3     1  UNL1        0.0014
     25 C          72.0717   75.4177   11.9702 C.3     1  UNL1        0.0038
     26 C          72.0532   74.8817   13.3709 C.3     1  UNL1        0.0159
     27 C          72.0345   74.3456   14.7718 C.3     1  UNL1        0.0041
     28 C          71.7774   73.4273   13.6139 C.3     1  UNL1        0.0101
     29 C          71.7960   73.9634   12.2131 C.3     1  UNL1        0.0007
     30 C          71.5203   72.5091   12.4560 C.3     1  UNL1        0.0011
     31 C          71.2446   71.0548   12.6989 C.3     1  UNL1        0.0070
     32 C          69.5775   69.4432   12.4040 C.3     1  UNL1        0.0722
     33 C          70.9689   69.6005   12.9419 C.2     1  UNL1        0.1503
     34 O          72.1032   68.8395   12.3219 O.2     1  UNL1       -0.2961
     35 C          73.3759   80.5449   16.3588 C.1     1  UNL1        0.1030
     36 N          73.6330   81.4632   17.5167 N.1     1  UNL1       -0.1907
@<TRIPOS>BOND
     1    32    33    1
     2    33    34    2
     3     1    33    1
     4     1     2    1
     5     2     3    1
     6     3     4    1
     7     4     5    1
     8     4     6    1
     9     4     7    1
    10     8     7    1
    11     8     9    1
    12     9    10    1
    13    10    11    2
    14    10    12    1
    15    12    13    2
    16    13    14    1
    17    14    15    1
    18    14    16    1
    19    16    17    2
    20    17    35    1
    21    35    36    3
    22    17    18    1
    23    18    19    2
    24    18    20    1
    25    20    21    1
    26    20    22    1
    27    20    23    1
    28    23    24    1
    29    24    25    1
    30    25    26    1
    31    26    27    1
    32    26    28    1
    33    28    29    1
    34    28    30    1
    35    30    31    1
    36     8     1    1
    37    28     9    1
    38    31     1    1
    39    26    13    1
    40    23    14    1
@<TRIPOS>MOLECULE
*****
 36 40 0 0 0
SMALL
GASTEIGER

@<TRIPOS>ATOM
      1 C          62.4030   81.1703   13.2510 C.3     1  UNL1        0.0519
      2 C          62.2135   79.7630   12.7676 C.3     1  UNL1        0.0069
      3 C          62.4664   79.4240   11.3285 C.3     1  UNL1        0.0004
      4 C          62.9089   80.4921   10.3729 C.3     1  UNL1        0.0000
      5 C          63.3373   81.1510    9.0952 C.3     1  UNL1        0.0000
      6 C          62.8681   79.3137    9.4457 C.3     1  UNL1        0.0000
      7 C          63.0985   81.8993   10.8563 C.3     1  UNL1        0.0008
      8 C          62.8456   82.2384   12.2954 C.3     1  UNL1        0.0138
      9 C          63.0351   83.6457   12.7789 C.3     1  UNL1        0.0626
     10 C          63.4777   84.7138   11.8233 C.2     1  UNL1        0.1721
     11 O          63.7306   84.3747   10.3842 O.2     1  UNL1       -0.2914
     12 C          63.6672   86.1210   12.3068 C.2     1  UNL1        0.0292
     13 C          63.4143   86.4602   13.7459 C.2     1  UNL1       -0.0388
     14 C          63.6039   87.8674   14.2294 C.3     1  UNL1        0.0349
     15 C          63.8568   87.5283   12.7903 C.3     1  UNL1        0.0085
     16 C          64.0464   88.9355   13.2738 C.2     1  UNL1       -0.0098
     17 C          64.2360   90.3427   13.7572 C.2     1  UNL1        0.0990
     18 C          63.9830   90.6818   15.1964 C.2     1  UNL1        0.1815
     19 O          64.1726   92.0891   15.6798 O.2     1  UNL1       -0.2907
     20 C          63.5405   89.6137   16.1520 C.3     1  UNL1        0.0568
     21 C          63.1122   88.9548   17.4296 C.3     1  UNL1        0.0077
     22 C          63.5813   90.7921   17.0792 C.3     1  UNL1        0.0077
     23 C          63.3509   88.2064   15.6685 C.3     1  UNL1        0.0141
     24 C          62.9084   87.1383   16.6241 C.3     1  UNL1        0.0014
     25 C          62.7188   85.7311   16.1406 C.3     1  UNL1        0.0038
     26 C          62.9718   85.3920   14.7016 C.3     1  UNL1        0.0159
     27 C          63.2247   85.0529   13.2624 C.3     1  UNL1        0.0041
     28 C          62.7822   83.9847   14.2180 C.3     1  UNL1        0.0101
     29 C          62.5292   84.3239   15.6572 C.3     1  UNL1        0.0007
     30 C          62.3397   82.9166   15.1737 C.3     1  UNL1        0.0011
     31 C          62.1501   81.5094   14.6902 C.3     1  UNL1        0.0070
     32 C          60.4984   79.8763   14.4544 C.3     1  UNL1        0.0722
     33 C          61.9605   80.1021   14.2067 C.2     1  UNL1        0.1503
     34 O          62.9800   79.2598   14.9145 O.2     1  UNL1       -0.2961
     35 C          64.6785   91.4109   12.8016 C.1     1  UNL1        0.1030
     36 N          65.1210   92.4790   11.8459 N.1     1  UNL1       -0.1907
@<TRIPOS>BOND
     1    32    33    1
     2    33    34    2
     3     1    33    1
     4     1     2    1
     5     2     3    1
     6     3     4    1
     7     4     5    1
     8     4     6    1
     9     4     7    1
    10     8     7    1
    11     8     9    1
    12     9    10    1
    13    10    11    2
    14    10    12    1
    15    12    13    2
    16    13    14    1
    17    14    15    1
    18    14    16    1
    19    16    17    2
    20    17    35    1
    21    35    36    3
    22    17    18    1
    23    18    19    2
    24    18    20    1
    25    20    21    1
    26    20    22    1
    27    20    23    1
    28    23    24    1
    29    24    25    1
    30    25    26    1
    31    26    27    1
    32    26    28    1
    33    28    29    1
    34    28    30    1
    35    30    31    1
    36     8     1    1
    37    28     9    1
    38    31     1    1
    39    26    13    1
    40    23    14    1
@<TRIPOS>MOLECULE
*****
 36 40 0 0 0
SMALL
GASTEIGER

@<TRIPOS>ATOM
      1 C          62.0497   86.4980   10.9794 C.3     1  UNL1        0.0519
      2 C          61.4271   85.1409   10.8362 C.3     1  UNL1        0.0069
      3 C          61.6234   84.1089   11.9069 C.3     1  UNL1        0.0004
      4 C          62.4423   84.4340   13.1208 C.3     1  UNL1        0.0000
      5 C          63.1277   84.2677   14.4447 C.3     1  UNL1        0.0000
      6 C          62.0577   83.0192   13.4374 C.3     1  UNL1        0.0000
      7 C          63.0650   85.7911   13.2640 C.3     1  UNL1        0.0008
      8 C          62.8687   86.8231   12.1933 C.3     1  UNL1        0.0138
      9 C          63.4914   88.1803   12.3365 C.3     1  UNL1        0.0626
     10 C          64.3103   88.5054   13.5504 C.2     1  UNL1        0.1721
     11 O          64.5066   87.4733   14.6211 O.2     1  UNL1       -0.2914
     12 C          64.9330   89.8625   13.6936 C.2     1  UNL1        0.0292
     13 C          64.7367   90.8945   12.6228 C.2     1  UNL1       -0.0388
     14 C          65.3594   92.2516   12.7660 C.3     1  UNL1        0.0349
     15 C          65.5557   91.2196   13.8367 C.3     1  UNL1        0.0085
     16 C          66.1784   92.5767   13.9799 C.2     1  UNL1       -0.0098
     17 C          66.8010   93.9338   14.1232 C.2     1  UNL1        0.0990
     18 C          66.6048   94.9659   13.0524 C.2     1  UNL1        0.1815
     19 O          67.2274   96.3230   13.1956 O.2     1  UNL1       -0.2907
     20 C          65.7858   94.6407   11.8385 C.3     1  UNL1        0.0568
     21 C          65.1004   94.8070   10.5147 C.3     1  UNL1        0.0077
     22 C          66.1705   96.0556   11.5219 C.3     1  UNL1        0.0077
     23 C          65.1631   93.2836   11.6953 C.3     1  UNL1        0.0141
     24 C          64.3441   92.9584   10.4814 C.3     1  UNL1        0.0014
     25 C          63.7215   91.6014   10.3382 C.3     1  UNL1        0.0038
     26 C          63.9178   90.5694   11.4089 C.3     1  UNL1        0.0159
     27 C          64.1141   89.5373   12.4797 C.3     1  UNL1        0.0041
     28 C          63.2951   89.2122   11.2657 C.3     1  UNL1        0.0101
     29 C          63.0988   90.2443   10.1950 C.3     1  UNL1        0.0007
     30 C          62.4761   88.8871   10.0518 C.3     1  UNL1        0.0011
     31 C          61.8535   87.5300    9.9086 C.3     1  UNL1        0.0070
     32 C          61.8431   85.4057    8.6311 C.3     1  UNL1        0.0722
     33 C          61.2308   86.1728    9.7655 C.2     1  UNL1        0.1503
     34 O          59.7996   86.6148    9.6859 O.2     1  UNL1       -0.2961
     35 C          67.6200   94.2589   15.3371 C.1     1  UNL1        0.1030
     36 N          68.4390   94.5841   16.5510 N.1     1  UNL1       -0.1907
@<TRIPOS>BOND
     1    32    33    1
     2    33    34    2
     3     1    33    1
     4     1     2    1
     5     2     3    1
     6     3     4    1
     7     4     5    1
     8     4     6    1
     9     4     7    1
    10     8     7    1
    11     8     9    1
    12     9    10    1
    13    10    11    2
    14    10    12    1
    15    12    13    2
    16    13    14    1
    17    14    15    1
    18    14    16    1
    19    16    17    2
    20    17    35    1
    21    35    36    3
    22    17    18    1
    23    18    19    2
    24    18    20    1
    25    20    21    1
    26    20    22    1
    27    20    23    1
    28    23    24    1
    29    24    25    1
    30    25    26    1
    31    26    27    1
    32    26    28    1
    33    28    29    1
    34    28    30    1
    35    30    31    1
    36     8     1    1
    37    28     9    1
    38    31     1    1
    39    26    13    1
    40    23    14    1
@<TRIPOS>MOLECULE
*****
 36 40 0 0 0
SMALL
GASTEIGER

@<TRIPOS>ATOM
      1 C          63.8764   89.7102   13.5853 C.3     1  UNL1        0.0519
      2 C          63.9925   91.2056   13.5710 C.3     1  UNL1        0.0069
      3 C          63.7398   91.9653   12.3026 C.3     1  UNL1        0.0004
      4 C          63.3709   91.2296   11.0485 C.3     1  UNL1        0.0000
      5 C          62.9972   90.9837    9.6168 C.3     1  UNL1        0.0000
      6 C          63.3572   92.6396   10.5370 C.3     1  UNL1        0.0000
      7 C          63.2547   89.7342   11.0629 C.3     1  UNL1        0.0008
      8 C          63.5075   88.9745   12.3313 C.3     1  UNL1        0.0138
      9 C          63.3914   87.4790   12.3456 C.3     1  UNL1        0.0626
     10 C          63.0225   86.7433   11.0915 C.2     1  UNL1        0.1721
     11 O          62.7697   87.5032    9.8231 O.2     1  UNL1       -0.2914
     12 C          62.9064   85.2479   11.1059 C.2     1  UNL1        0.0292
     13 C          63.1592   84.4881   12.3743 C.2     1  UNL1       -0.0388
     14 C          63.0431   82.9927   12.3886 C.3     1  UNL1        0.0349
     15 C          62.7903   83.7525   11.1202 C.3     1  UNL1        0.0085
     16 C          62.6742   82.2571   11.1346 C.2     1  UNL1       -0.0098
     17 C          62.5580   80.7617   11.1489 C.2     1  UNL1        0.0990
     18 C          62.8108   80.0019   12.4173 C.2     1  UNL1        0.1815
     19 O          62.6947   78.5065   12.4316 O.2     1  UNL1       -0.2907
     20 C          63.1797   80.7375   13.6714 C.3     1  UNL1        0.0568
     21 C          63.5533   80.9835   15.1031 C.3     1  UNL1        0.0077
     22 C          63.1934   79.3275   14.1829 C.3     1  UNL1        0.0077
     23 C          63.2958   82.2330   13.6570 C.3     1  UNL1        0.0141
     24 C          63.6647   82.9687   14.9111 C.3     1  UNL1        0.0014
     25 C          63.7809   84.4641   14.8968 C.3     1  UNL1        0.0038
     26 C          63.5281   85.2238   13.6284 C.3     1  UNL1        0.0159
     27 C          63.2753   85.9836   12.3599 C.3     1  UNL1        0.0041
     28 C          63.6442   86.7193   13.6140 C.3     1  UNL1        0.0101
     29 C          63.8970   85.9595   14.8825 C.3     1  UNL1        0.0007
     30 C          64.0131   87.4550   14.8681 C.3     1  UNL1        0.0011
     31 C          64.1292   88.9504   14.8538 C.3     1  UNL1        0.0070
     32 C          65.6197   91.0275   14.9910 C.3     1  UNL1        0.0722
     33 C          64.2453   90.4458   14.8394 C.2     1  UNL1        0.1503
     34 O          63.2400   90.5998   15.9419 O.2     1  UNL1       -0.2961
     35 C          62.1891   80.0260    9.8948 C.1     1  UNL1        0.1030
     36 N          61.8202   79.2903    8.6407 N.1     1  UNL1       -0.1907
@<TRIPOS>BOND
     1    32    33    1
     2    33    34    2
     3     1    33    1
     4     1     2    1
     5     2     3    1
     6     3     4    1
     7     4     5    1
     8     4     6    1
     9     4     7    1
    10     8     7    1
    11     8     9    1
    12     9    10    1
    13    10    11    2
    14    10    12    1
    15    12    13    2
    16    13    14    1
    17    14    15    1
    18    14    16    1
    19    16    17    2
    20    17    35    1
    21    35    36    3
    22    17    18    1
    23    18    19    2
    24    18    20    1
    25    20    21    1
    26    20    22    1
    27    20    23    1
    28    23    24    1
    29    24    25    1
    30    25    26    1
    31    26    27    1
    32    26    28    1
    33    28    29    1
    34    28    30    1
    35    30    31    1
    36     8     1    1
    37    28     9    1
    38    31     1    1
    39    26    13    1
    40    23    14    1
@<TRIPOS>MOLECULE
*****
 36 40 0 0 0
SMALL
GASTEIGER

@<TRIPOS>ATOM
      1 C          66.2124   93.2433   13.9799 C.3     1  UNL1        0.0519
      2 C          66.8354   94.5822   14.2428 C.3     1  UNL1        0.0069
      3 C          66.7214   95.6757   13.2224 C.3     1  UNL1        0.0004
      4 C          65.9845   95.4303   11.9391 C.3     1  UNL1        0.0000
      5 C          65.3927   95.6801   10.5837 C.3     1  UNL1        0.0000
      6 C          66.4019   96.8560   11.7313 C.3     1  UNL1        0.0000
      7 C          65.3616   94.0914   11.6762 C.3     1  UNL1        0.0008
      8 C          65.4756   92.9979   12.6966 C.3     1  UNL1        0.0138
      9 C          64.8526   91.6588   12.4337 C.3     1  UNL1        0.0626
     10 C          64.1157   91.4134   11.1505 C.2     1  UNL1        0.1721
     11 O          64.0018   92.5070   10.1301 O.2     1  UNL1       -0.2914
     12 C          63.4928   90.0745   10.8875 C.2     1  UNL1        0.0292
     13 C          63.6067   88.9809   11.9079 C.2     1  UNL1       -0.0388
     14 C          62.9838   87.6420   11.6450 C.3     1  UNL1        0.0349
     15 C          62.8699   88.7355   10.6247 C.3     1  UNL1        0.0085
     16 C          62.2469   87.3965   10.3618 C.2     1  UNL1       -0.0098
     17 C          61.6240   86.0576   10.0988 C.2     1  UNL1        0.0990
     18 C          61.7379   84.9640   11.1192 C.2     1  UNL1        0.1815
     19 O          61.1150   83.6251   10.8563 O.2     1  UNL1       -0.2907
     20 C          62.4748   85.2094   12.4025 C.3     1  UNL1        0.0568
     21 C          63.0667   84.9597   13.7579 C.3     1  UNL1        0.0077
     22 C          62.0574   83.7837   12.6103 C.3     1  UNL1        0.0077
     23 C          63.0977   86.5484   12.6654 C.3     1  UNL1        0.0141
     24 C          63.8346   86.7939   13.9487 C.3     1  UNL1        0.0014
     25 C          64.4575   88.1328   14.2116 C.3     1  UNL1        0.0038
     26 C          64.3436   89.2263   13.1912 C.3     1  UNL1        0.0159
     27 C          64.2297   90.3199   12.1708 C.3     1  UNL1        0.0041
     28 C          64.9665   90.5653   13.4541 C.3     1  UNL1        0.0101
     29 C          65.0805   89.4717   14.4745 C.3     1  UNL1        0.0007
     30 C          65.7034   90.8107   14.7374 C.3     1  UNL1        0.0011
     31 C          66.3263   92.1497   15.0003 C.3     1  UNL1        0.0070
     32 C          68.4278   93.7410   15.2426 C.3     1  UNL1        0.0722
     33 C          66.9493   93.4887   15.2632 C.2     1  UNL1        0.1503
     34 O          66.2077   93.4819   16.5670 O.2     1  UNL1       -0.2961
     35 C          60.8871   85.8122    8.8156 C.1     1  UNL1        0.1030
     36 N          60.1502   85.5668    7.5323 N.1     1  UNL1       -0.1907
@<TRIPOS>BOND
     1    32    33    1
     2    33    34    2
     3     1    33    1
     4     1     2    1
     5     2     3    1
     6     3     4    1
     7     4     5    1
     8     4     6    1
     9     4     7    1
    10     8     7    1
    11     8     9    1
    12     9    10    1
    13    10    11    2
    14    10    12    1
    15    12    13    2
    16    13    14    1
    17    14    15    1
    18    14    16    1
    19    16    17    2
    20    17    35    1
    21    35    36    3
    22    17    18    1
    23    18    19    2
    24    18    20    1
    25    20    21    1
    26    20    22    1
    27    20    23    1
    28    23    24    1
    29    24    25    1
    30    25    26    1
    31    26    27    1
    32    26    28    1
    33    28    29    1
    34    28    30    1
    35    30    31    1
    36     8     1    1
    37    28     9    1
    38    31     1    1
    39    26    13    1
    40    23    14    1
