@<TRIPOS>MOLECULE
*****
 25 29 0 0 0
SMALL
GASTEIGER

@<TRIPOS>ATOM
      1 C          61.8558   86.6737   10.2957 C.ar    1  UNL1        0.2118
      2 C          62.6309   86.1573   11.4715 C.ar    1  UNL1        0.1822
      3 O          63.2785   87.1186   12.4236 O.2     1  UNL1       -0.4501
      4 C          63.1510   88.5964   12.1998 C.ar    1  UNL1        0.1515
      5 C          62.3759   89.1128   11.0240 C.ar    1  UNL1        0.0768
      6 C          62.2484   90.5904   10.8002 C.ar    1  UNL1        0.0095
      7 C          62.8960   91.5518   11.7523 C.ar    1  UNL1        0.0378
      8 C          63.6711   91.0354   12.9281 C.ar    1  UNL1        0.1484
      9 O          64.4128   91.7365   14.0274 O.2     1  UNL1       -0.4503
     10 C          64.9988   90.6919   14.9305 C.ar    1  UNL1        0.1797
     11 C          64.6191   89.3454   14.3895 C.ar    1  UNL1        0.0467
     12 C          63.7986   89.5577   13.1519 C.ar    1  UNL1        0.0723
     13 C          61.7283   88.1513   10.0719 C.ar    1  UNL1        0.2352
     14 O          60.9533   88.6677    8.8961 O.2     1  UNL1       -0.2831
     15 C          62.7584   84.6796   11.6954 C.ar    1  UNL1        0.0409
     16 C          63.3875   83.8133   10.6447 C.ar    1  UNL1        0.0065
     17 C          63.5150   82.3357   10.8686 C.ar    1  UNL1        0.0403
     18 C          63.0134   81.7241   12.1432 C.ar    1  UNL1        0.1764
     19 C          62.3843   82.5904   13.1938 C.ar    1  UNL1        0.1765
     20 C          62.2568   84.0681   12.9699 C.ar    1  UNL1        0.0433
     21 O          61.9844   81.7109   14.3412 O.3     1  UNL1       -0.4346
     22 C          62.3664   80.3012   13.9998 C.3     1  UNL1        0.4294
     23 O          63.0024   80.3094   12.6413 O.3     1  UNL1       -0.4346
     24 C          61.7071   85.6029    7.9332 C.3     1  UNL1        0.2528
     25 O          61.2082   85.7123    9.3436 O.3     1  UNL1       -0.4653
@<TRIPOS>BOND
     1    24    25    1
     2    25     1    1
     3     1     2   ar
     4     2    15    1
     5    15    16   ar
     6    16    17   ar
     7    17    18   ar
     8    18    19   ar
     9    19    20   ar
    10    19    21    1
    11    21    22    1
    12    22    23    1
    13     2     3   ar
    14     3     4   ar
    15     4     5   ar
    16     5     6   ar
    17     6     7   ar
    18     7     8   ar
    19     8     9   ar
    20     9    10   ar
    21    10    11   ar
    22    11    12   ar
    23     5    13   ar
    24    13    14    2
    25    13     1   ar
    26    20    15   ar
    27    12     4   ar
    28    23    18    1
    29    12     8   ar
@<TRIPOS>MOLECULE
*****
 25 29 0 0 0
SMALL
GASTEIGER

@<TRIPOS>ATOM
      1 C          63.2141   90.0817   12.0282 C.ar    1  UNL1        0.2118
      2 C          63.9666   89.5838   13.2265 C.ar    1  UNL1        0.1822
      3 O          63.9902   88.1174   13.5411 O.2     1  UNL1       -0.4501
      4 C          63.2613   87.1489   12.6576 C.ar    1  UNL1        0.1515
      5 C          62.5087   87.6468   11.4593 C.ar    1  UNL1        0.0768
      6 C          61.7798   86.6784   10.5758 C.ar    1  UNL1        0.0095
      7 C          61.8034   85.2119   10.8905 C.ar    1  UNL1        0.0378
      8 C          62.5559   84.7139   12.0887 C.ar    1  UNL1        0.1484
      9 O          62.7568   83.3360   12.6463 O.2     1  UNL1       -0.4503
     10 C          63.6099   83.4529   13.8746 C.ar    1  UNL1        0.1797
     11 C          63.9363   84.9031   14.0760 C.ar    1  UNL1        0.0467
     12 C          63.2849   85.6824   12.9722 C.ar    1  UNL1        0.0723
     13 C          62.4852   89.1133   11.1447 C.ar    1  UNL1        0.2352
     14 O          61.7327   89.6112    9.9465 O.2     1  UNL1       -0.2831
     15 C          64.6956   90.5523   14.1101 C.ar    1  UNL1        0.0409
     16 C          64.0827   90.9926   15.4064 C.ar    1  UNL1        0.0065
     17 C          64.8117   91.9610   16.2899 C.ar    1  UNL1        0.0403
     18 C          66.1536   92.4891   15.8772 C.ar    1  UNL1        0.1764
     19 C          66.7665   92.0488   14.5809 C.ar    1  UNL1        0.1765
     20 C          66.0375   91.0803   13.6973 C.ar    1  UNL1        0.0433
     21 O          68.0931   92.7344   14.4388 O.3     1  UNL1       -0.4346
     22 C          68.3000   93.5985   15.6473 C.3     1  UNL1        0.4294
     23 O          67.1013   93.4469   16.5363 O.3     1  UNL1       -0.4346
     24 C          64.1433   92.1137   10.7024 C.3     1  UNL1        0.2528
     25 O          63.1905   91.5482   11.7136 O.3     1  UNL1       -0.4653
@<TRIPOS>BOND
     1    24    25    1
     2    25     1    1
     3     1     2   ar
     4     2    15    1
     5    15    16   ar
     6    16    17   ar
     7    17    18   ar
     8    18    19   ar
     9    19    20   ar
    10    19    21    1
    11    21    22    1
    12    22    23    1
    13     2     3   ar
    14     3     4   ar
    15     4     5   ar
    16     5     6   ar
    17     6     7   ar
    18     7     8   ar
    19     8     9   ar
    20     9    10   ar
    21    10    11   ar
    22    11    12   ar
    23     5    13   ar
    24    13    14    2
    25    13     1   ar
    26    20    15   ar
    27    12     4   ar
    28    23    18    1
    29    12     8   ar
@<TRIPOS>MOLECULE
*****
 25 29 0 0 0
SMALL
GASTEIGER

@<TRIPOS>ATOM
      1 C          63.7990   87.1113   13.5505 C.ar    1  UNL1        0.2118
      2 C          63.4968   88.5542   13.2732 C.ar    1  UNL1        0.1822
      3 O          62.6626   88.9308   12.0849 O.2     1  UNL1       -0.4501
      4 C          62.1304   87.8646   11.1739 C.ar    1  UNL1        0.1515
      5 C          62.4325   86.4217   11.4511 C.ar    1  UNL1        0.0768
      6 C          61.9004   85.3556   10.5401 C.ar    1  UNL1        0.0095
      7 C          61.0661   85.7322    9.3517 C.ar    1  UNL1        0.0378
      8 C          60.7640   87.1750    9.0745 C.ar    1  UNL1        0.1484
      9 O          59.9755   87.8446    7.9882 O.2     1  UNL1       -0.4503
     10 C          60.0204   89.3246    8.2279 C.ar    1  UNL1        0.1797
     11 C          60.8366   89.5698    9.4623 C.ar    1  UNL1        0.0467
     12 C          61.2961   88.2412    9.9855 C.ar    1  UNL1        0.0723
     13 C          63.2668   86.0452   12.6395 C.ar    1  UNL1        0.2352
     14 O          63.5690   84.6023   12.9168 O.2     1  UNL1       -0.2831
     15 C          64.0290   89.6205   14.1842 C.ar    1  UNL1        0.0409
     16 C          63.3029   89.9533   15.4539 C.ar    1  UNL1        0.0065
     17 C          63.8350   91.0195   16.3648 C.ar    1  UNL1        0.0403
     18 C          65.0933   91.7530   16.0061 C.ar    1  UNL1        0.1764
     19 C          65.8194   91.4203   14.7365 C.ar    1  UNL1        0.1765
     20 C          65.2873   90.3540   13.8255 C.ar    1  UNL1        0.0433
     21 O          67.0269   92.3057   14.6474 O.3     1  UNL1       -0.4346
     22 C          67.0471   93.1856   15.8620 C.3     1  UNL1        0.4294
     23 O          65.8520   92.8441   16.7017 O.3     1  UNL1       -0.4346
     24 C          63.9885   86.1083   15.9396 C.3     1  UNL1        0.2528
     25 O          64.6333   86.7347   14.7389 O.3     1  UNL1       -0.4653
@<TRIPOS>BOND
     1    24    25    1
     2    25     1    1
     3     1     2   ar
     4     2    15    1
     5    15    16   ar
     6    16    17   ar
     7    17    18   ar
     8    18    19   ar
     9    19    20   ar
    10    19    21    1
    11    21    22    1
    12    22    23    1
    13     2     3   ar
    14     3     4   ar
    15     4     5   ar
    16     5     6   ar
    17     6     7   ar
    18     7     8   ar
    19     8     9   ar
    20     9    10   ar
    21    10    11   ar
    22    11    12   ar
    23     5    13   ar
    24    13    14    2
    25    13     1   ar
    26    20    15   ar
    27    12     4   ar
    28    23    18    1
    29    12     8   ar
@<TRIPOS>MOLECULE
*****
 25 29 0 0 0
SMALL
GASTEIGER

@<TRIPOS>ATOM
      1 C          63.4426   89.3876   12.7182 C.ar    1  UNL1        0.2118
      2 C          63.1334   89.9907   11.3800 C.ar    1  UNL1        0.1822
      3 O          63.7854   91.2774   10.9686 O.2     1  UNL1       -0.4501
      4 C          64.7467   91.9610   11.8953 C.ar    1  UNL1        0.1515
      5 C          65.0559   91.3579   13.2334 C.ar    1  UNL1        0.0768
      6 C          66.0170   92.0413   14.1601 C.ar    1  UNL1        0.0095
      7 C          66.6692   93.3281   13.7487 C.ar    1  UNL1        0.0378
      8 C          66.3599   93.9312   12.4106 C.ar    1  UNL1        0.1484
      9 O          66.8453   95.1801   11.7363 O.2     1  UNL1       -0.4503
     10 C          66.1840   95.2684   10.3929 C.ar    1  UNL1        0.1797
     11 C          65.2899   94.0741   10.2368 C.ar    1  UNL1        0.0467
     12 C          65.3987   93.2476   11.4839 C.ar    1  UNL1        0.0723
     13 C          64.4037   90.0711   13.6448 C.ar    1  UNL1        0.2352
     14 O          64.7130   89.4680   14.9829 O.2     1  UNL1       -0.2831
     15 C          62.1721   89.3073   10.4532 C.ar    1  UNL1        0.0409
     16 C          60.9125   90.0042   10.0317 C.ar    1  UNL1        0.0065
     17 C          59.9514   89.3207    9.1050 C.ar    1  UNL1        0.0403
     18 C          60.2497   87.9401    8.5997 C.ar    1  UNL1        0.1764
     19 C          61.5093   87.2432    9.0213 C.ar    1  UNL1        0.1765
     20 C          62.4705   87.9268    9.9481 C.ar    1  UNL1        0.0433
     21 O          61.5346   85.8945    8.3653 O.3     1  UNL1       -0.4346
     22 C          60.2907   85.7580    7.5383 C.3     1  UNL1        0.4294
     23 O          59.4966   87.0222    7.6832 O.3     1  UNL1       -0.4346
     24 C          63.6137   86.8552   13.2727 C.3     1  UNL1        0.2528
     25 O          62.7905   88.1009   13.1296 O.3     1  UNL1       -0.4653
@<TRIPOS>BOND
     1    24    25    1
     2    25     1    1
     3     1     2   ar
     4     2    15    1
     5    15    16   ar
     6    16    17   ar
     7    17    18   ar
     8    18    19   ar
     9    19    20   ar
    10    19    21    1
    11    21    22    1
    12    22    23    1
    13     2     3   ar
    14     3     4   ar
    15     4     5   ar
    16     5     6   ar
    17     6     7   ar
    18     7     8   ar
    19     8     9   ar
    20     9    10   ar
    21    10    11   ar
    22    11    12   ar
    23     5    13   ar
    24    13    14    2
    25    13     1   ar
    26    20    15   ar
    27    12     4   ar
    28    23    18    1
    29    12     8   ar
@<TRIPOS>MOLECULE
*****
 25 29 0 0 0
SMALL
GASTEIGER

@<TRIPOS>ATOM
      1 C          63.4772   87.3183   15.7290 C.ar    1  UNL1        0.2118
      2 C          63.8396   87.6158   14.3042 C.ar    1  UNL1        0.1822
      3 O          63.8380   86.5157   13.2845 O.2     1  UNL1       -0.4501
      4 C          63.4740   85.1181   13.6897 C.ar    1  UNL1        0.1515
      5 C          63.1117   84.8206   15.1145 C.ar    1  UNL1        0.0768
      6 C          62.7477   83.4230   15.5197 C.ar    1  UNL1        0.0095
      7 C          62.7461   82.3228   14.5001 C.ar    1  UNL1        0.0378
      8 C          63.1085   82.6203   13.0753 C.ar    1  UNL1        0.1484
      9 O          63.1941   81.7476   11.8583 O.2     1  UNL1       -0.4503
     10 C          63.6110   82.6060   10.7009 C.ar    1  UNL1        0.1797
     11 C          63.7830   84.0091   11.2026 C.ar    1  UNL1        0.0467
     12 C          63.4724   84.0179   12.6701 C.ar    1  UNL1        0.0723
     13 C          63.1133   85.9208   16.1342 C.ar    1  UNL1        0.2352
     14 O          62.7509   85.6233   17.5590 O.2     1  UNL1       -0.2831
     15 C          64.2036   89.0135   13.8989 C.ar    1  UNL1        0.0409
     16 C          63.5181   89.6583   12.7309 C.ar    1  UNL1        0.0065
     17 C          63.8821   91.0558   12.3256 C.ar    1  UNL1        0.0403
     18 C          64.9317   91.8087   13.0884 C.ar    1  UNL1        0.1764
     19 C          65.6171   91.1638   14.2564 C.ar    1  UNL1        0.1765
     20 C          65.2531   89.7662   14.6617 C.ar    1  UNL1        0.0433
     21 O          66.6051   92.1453   14.8137 O.3     1  UNL1       -0.4346
     22 C          66.5302   93.3967   13.9901 C.3     1  UNL1        0.4294
     23 O          65.4959   93.1886   12.9238 O.3     1  UNL1       -0.4346
     24 C          62.4922   89.5432   16.6399 C.3     1  UNL1        0.2528
     25 O          63.4788   88.4186   16.7486 O.3     1  UNL1       -0.4653
@<TRIPOS>BOND
     1    24    25    1
     2    25     1    1
     3     1     2   ar
     4     2    15    1
     5    15    16   ar
     6    16    17   ar
     7    17    18   ar
     8    18    19   ar
     9    19    20   ar
    10    19    21    1
    11    21    22    1
    12    22    23    1
    13     2     3   ar
    14     3     4   ar
    15     4     5   ar
    16     5     6   ar
    17     6     7   ar
    18     7     8   ar
    19     8     9   ar
    20     9    10   ar
    21    10    11   ar
    22    11    12   ar
    23     5    13   ar
    24    13    14    2
    25    13     1   ar
    26    20    15   ar
    27    12     4   ar
    28    23    18    1
    29    12     8   ar
@<TRIPOS>MOLECULE
*****
 25 29 0 0 0
SMALL
GASTEIGER

@<TRIPOS>ATOM
      1 C          63.3084   87.5729   12.8472 C.ar    1  UNL1        0.2118
      2 C          62.5047   86.8200   11.8288 C.ar    1  UNL1        0.1822
      3 O          62.4081   85.3251   11.9056 O.2     1  UNL1       -0.4501
      4 C          63.1151   84.5831   13.0008 C.ar    1  UNL1        0.1515
      5 C          63.9188   85.3360   14.0192 C.ar    1  UNL1        0.0768
      6 C          64.6258   84.5940   15.1144 C.ar    1  UNL1        0.0095
      7 C          64.5292   83.0990   15.1912 C.ar    1  UNL1        0.0378
      8 C          63.7255   82.3461   14.1727 C.ar    1  UNL1        0.1484
      9 O          63.4496   80.8826   13.9941 O.2     1  UNL1       -0.4503
     10 C          62.5721   80.7201   12.7885 C.ar    1  UNL1        0.1797
     11 C          62.3056   82.0832   12.2220 C.ar    1  UNL1        0.0467
     12 C          63.0184   83.0882   13.0775 C.ar    1  UNL1        0.0723
     13 C          64.0154   86.8309   13.9424 C.ar    1  UNL1        0.2352
     14 O          64.8191   87.5838   14.9608 O.2     1  UNL1       -0.2831
     15 C          61.7976   87.5620   10.7335 C.ar    1  UNL1        0.0409
     16 C          62.1050   89.0096   10.4884 C.ar    1  UNL1        0.0065
     17 C          61.3979   89.7514    9.3932 C.ar    1  UNL1        0.0403
     18 C          60.3834   89.0458    8.5430 C.ar    1  UNL1        0.1764
     19 C          60.0760   87.5983    8.7881 C.ar    1  UNL1        0.1765
     20 C          60.7831   86.8564    9.8834 C.ar    1  UNL1        0.0433
     21 O          59.0357   87.1708    7.7957 O.3     1  UNL1       -0.4346
     22 C          58.7001   88.3542    6.9372 C.3     1  UNL1        0.4294
     23 O          59.5331   89.5130    7.3991 O.3     1  UNL1       -0.4346
     24 C          62.9944   89.9072   13.9438 C.3     1  UNL1        0.2528
     25 O          63.4050   89.0679   12.7704 O.3     1  UNL1       -0.4653
@<TRIPOS>BOND
     1    24    25    1
     2    25     1    1
     3     1     2   ar
     4     2    15    1
     5    15    16   ar
     6    16    17   ar
     7    17    18   ar
     8    18    19   ar
     9    19    20   ar
    10    19    21    1
    11    21    22    1
    12    22    23    1
    13     2     3   ar
    14     3     4   ar
    15     4     5   ar
    16     5     6   ar
    17     6     7   ar
    18     7     8   ar
    19     8     9   ar
    20     9    10   ar
    21    10    11   ar
    22    11    12   ar
    23     5    13   ar
    24    13    14    2
    25    13     1   ar
    26    20    15   ar
    27    12     4   ar
    28    23    18    1
    29    12     8   ar
@<TRIPOS>MOLECULE
*****
 25 29 0 0 0
SMALL
GASTEIGER

@<TRIPOS>ATOM
      1 C          64.7060   95.0610    0.6520 C.ar    1  UNL1        0.2118
      2 C          63.5258   94.1907    0.3361 C.ar    1  UNL1        0.1822
      3 O          63.0166   94.0998   -1.0719 O.2     1  UNL1       -0.4501
      4 C          63.6875   94.8791   -2.1639 C.ar    1  UNL1        0.1515
      5 C          64.8676   95.7493   -1.8480 C.ar    1  UNL1        0.0768
      6 C          65.5385   96.5286   -2.9400 C.ar    1  UNL1        0.0095
      7 C          65.0293   96.4376   -4.3481 C.ar    1  UNL1        0.0378
      8 C          63.8491   95.5674   -4.6639 C.ar    1  UNL1        0.1484
      9 O          63.1287   95.2805   -5.9480 O.2     1  UNL1       -0.4503
     10 C          62.0126   94.3238   -5.6495 C.ar    1  UNL1        0.1797
     11 C          62.0432   94.0195   -4.1810 C.ar    1  UNL1        0.0467
     12 C          63.1782   94.7881   -3.5719 C.ar    1  UNL1        0.0723
     13 C          65.3769   95.8402   -0.4400 C.ar    1  UNL1        0.2352
     14 O          66.5571   96.7105   -0.1241 O.2     1  UNL1       -0.2831
     15 C          62.8549   93.4114    1.4281 C.ar    1  UNL1        0.0409
     16 C          63.5975   92.3145    2.1319 C.ar    1  UNL1        0.0065
     17 C          62.9265   91.5353    3.2239 C.ar    1  UNL1        0.0403
     18 C          61.5128   91.8528    3.6121 C.ar    1  UNL1        0.1764
     19 C          60.7702   92.9497    2.9083 C.ar    1  UNL1        0.1765
     20 C          61.4412   93.7290    1.8163 C.ar    1  UNL1        0.0433
     21 O          59.3960   93.0352    3.5035 O.3     1  UNL1       -0.4346
     22 C          59.2894   91.9911    4.5752 C.3     1  UNL1        0.4294
     23 O          60.5976   91.2604    4.6423 O.3     1  UNL1       -0.4346
     24 C          64.9310   96.3733    2.8829 C.3     1  UNL1        0.2528
     25 O          65.2153   95.1519    2.0600 O.3     1  UNL1       -0.4653
@<TRIPOS>BOND
     1    24    25    1
     2    25     1    1
     3     1     2   ar
     4     2    15    1
     5    15    16   ar
     6    16    17   ar
     7    17    18   ar
     8    18    19   ar
     9    19    20   ar
    10    19    21    1
    11    21    22    1
    12    22    23    1
    13     2     3   ar
    14     3     4   ar
    15     4     5   ar
    16     5     6   ar
    17     6     7   ar
    18     7     8   ar
    19     8     9   ar
    20     9    10   ar
    21    10    11   ar
    22    11    12   ar
    23     5    13   ar
    24    13    14    2
    25    13     1   ar
    26    20    15   ar
    27    12     4   ar
    28    23    18    1
    29    12     8   ar
@<TRIPOS>MOLECULE
*****
 25 29 0 0 0
SMALL
GASTEIGER

@<TRIPOS>ATOM
      1 C          63.0986   87.2811   12.2721 C.ar    1  UNL1        0.2118
      2 C          62.9693   88.7459   11.9760 C.ar    1  UNL1        0.1822
      3 O          62.1228   89.2068   10.8266 O.2     1  UNL1       -0.4501
      4 C          61.4058   88.2029    9.9733 C.ar    1  UNL1        0.1515
      5 C          61.5351   86.7381   10.2695 C.ar    1  UNL1        0.0768
      6 C          60.8181   85.7343    9.4163 C.ar    1  UNL1        0.0095
      7 C          59.9716   86.1951    8.2668 C.ar    1  UNL1        0.0378
      8 C          59.8422   87.6599    7.9707 C.ar    1  UNL1        0.1484
      9 O          59.0848   88.4070    6.9133 O.2     1  UNL1       -0.4503
     10 C          59.3338   89.8726    7.1130 C.ar    1  UNL1        0.1797
     11 C          60.2451   90.0314    8.2938 C.ar    1  UNL1        0.0467
     12 C          60.5593   88.6638    8.8239 C.ar    1  UNL1        0.0723
     13 C          62.3816   86.2773   11.4189 C.ar    1  UNL1        0.2352
     14 O          62.5109   84.8125   11.7151 O.2     1  UNL1       -0.2831
     15 C          63.6863   89.7499   12.8292 C.ar    1  UNL1        0.0409
     16 C          63.6987   89.5939   14.3210 C.ar    1  UNL1        0.0065
     17 C          64.4157   90.5979   15.1741 C.ar    1  UNL1        0.0403
     18 C          65.1205   91.7579   14.5354 C.ar    1  UNL1        0.1764
     19 C          65.1081   91.9138   13.0436 C.ar    1  UNL1        0.1765
     20 C          64.3910   90.9098   12.1905 C.ar    1  UNL1        0.0433
     21 O          65.8850   93.1502   12.7004 O.3     1  UNL1       -0.4346
     22 C          66.3774   93.7583   13.9800 C.3     1  UNL1        0.4294
     23 O          65.9049   92.8978   15.1142 O.3     1  UNL1       -0.4346
     24 C          63.8554   85.4005   13.8971 C.3     1  UNL1        0.2528
     25 O          63.9451   86.8203   13.4216 O.3     1  UNL1       -0.4653
@<TRIPOS>BOND
     1    24    25    1
     2    25     1    1
     3     1     2   ar
     4     2    15    1
     5    15    16   ar
     6    16    17   ar
     7    17    18   ar
     8    18    19   ar
     9    19    20   ar
    10    19    21    1
    11    21    22    1
    12    22    23    1
    13     2     3   ar
    14     3     4   ar
    15     4     5   ar
    16     5     6   ar
    17     6     7   ar
    18     7     8   ar
    19     8     9   ar
    20     9    10   ar
    21    10    11   ar
    22    11    12   ar
    23     5    13   ar
    24    13    14    2
    25    13     1   ar
    26    20    15   ar
    27    12     4   ar
    28    23    18    1
    29    12     8   ar
@<TRIPOS>MOLECULE
*****
 25 29 0 0 0
SMALL
GASTEIGER

@<TRIPOS>ATOM
      1 C          62.5960   89.1556   11.4832 C.ar    1  UNL1        0.2118
      2 C          63.4196   88.7904   12.6825 C.ar    1  UNL1        0.1822
      3 O          63.6613   87.3479   13.0153 O.2     1  UNL1       -0.4501
      4 C          63.0792   86.2706   12.1489 C.ar    1  UNL1        0.1515
      5 C          62.2555   86.6358   10.9497 C.ar    1  UNL1        0.0768
      6 C          61.6734   85.5585   10.0833 C.ar    1  UNL1        0.0095
      7 C          61.9150   84.1160   10.4161 C.ar    1  UNL1        0.0378
      8 C          62.7387   83.7508   11.6154 C.ar    1  UNL1        0.1484
      9 O          63.1438   82.4252   12.1888 O.2     1  UNL1       -0.4503
     10 C          63.9762   82.6833   13.4097 C.ar    1  UNL1        0.1797
     11 C          64.0856   84.1683   13.5907 C.ar    1  UNL1        0.0467
     12 C          63.3208   84.8281   12.4817 C.ar    1  UNL1        0.0723
     13 C          62.0139   88.0784   10.6169 C.ar    1  UNL1        0.2352
     14 O          61.1902   88.4435    9.4177 O.2     1  UNL1       -0.2831
     15 C          64.0018   89.8676   13.5489 C.ar    1  UNL1        0.0409
     16 C          65.1290   90.7146   13.0371 C.ar    1  UNL1        0.0065
     17 C          65.7111   91.7917   13.9036 C.ar    1  UNL1        0.0403
     18 C          65.1659   92.0221   15.2819 C.ar    1  UNL1        0.1764
     19 C          64.0386   91.1751   15.7937 C.ar    1  UNL1        0.1765
     20 C          63.4566   90.0979   14.9272 C.ar    1  UNL1        0.0433
     21 O          63.7105   91.6313   17.1845 O.3     1  UNL1       -0.4346
     22 C          64.6350   92.7602   17.5322 C.3     1  UNL1        0.4294
     23 O          65.5345   93.0017   16.3563 O.3     1  UNL1       -0.4346
     24 C          63.1538   91.2623   10.0688 C.3     1  UNL1        0.2528
     25 O          62.3544   90.5982   11.1504 O.3     1  UNL1       -0.4653
@<TRIPOS>BOND
     1    24    25    1
     2    25     1    1
     3     1     2   ar
     4     2    15    1
     5    15    16   ar
     6    16    17   ar
     7    17    18   ar
     8    18    19   ar
     9    19    20   ar
    10    19    21    1
    11    21    22    1
    12    22    23    1
    13     2     3   ar
    14     3     4   ar
    15     4     5   ar
    16     5     6   ar
    17     6     7   ar
    18     7     8   ar
    19     8     9   ar
    20     9    10   ar
    21    10    11   ar
    22    11    12   ar
    23     5    13   ar
    24    13    14    2
    25    13     1   ar
    26    20    15   ar
    27    12     4   ar
    28    23    18    1
    29    12     8   ar
