@<TRIPOS>MOLECULE
*****
 46 52 0 0 0
SMALL
GASTEIGER

@<TRIPOS>ATOM
      1 N          59.8957   94.0343   -1.5475 N.am    1  UNL1       -0.2222
      2 C          59.3909   93.3668   -0.3025 C.2     1  UNL1        0.3219
      3 O          57.9624   93.0181   -0.0063 O.2     1  UNL1       -0.2512
      4 N          60.5656   93.1093    0.5942 N.am    1  UNL1       -0.1907
      5 C          61.7962   93.6176   -0.0966 C.2     1  UNL1        0.2529
      6 O          63.1952   93.5637    0.4417 O.2     1  UNL1       -0.2724
      7 C          61.3822   94.1893   -1.4202 C.3     1  UNL1        0.1391
      8 C          60.8212   94.7213   -2.7055 C.3     1  UNL1        0.0449
      9 C          61.7336   95.3394   -3.7231 C.3     1  UNL1        0.0746
     10 N          63.2070   95.4254   -3.4554 N.3     1  UNL1       -0.2676
     11 C          63.7680   94.8934   -2.1700 C.3     1  UNL1        0.0746
     12 C          62.8556   94.2753   -1.1524 C.3     1  UNL1        0.0449
     13 C          57.9163   93.9386   -4.9859 C.ar    1  UNL1        0.2293
     14 C          58.7514   93.5027   -3.8186 C.ar    1  UNL1        0.0924
     15 C          59.0605   94.4702   -2.7147 C.ar    1  UNL1        0.1453
     16 N          58.5345   95.8735   -2.7781 N.ar    1  UNL1       -0.2084
     17 C          57.6993   96.3094   -3.9453 C.ar    1  UNL1        0.2027
     18 N          57.3902   95.3419   -5.0492 N.ar    1  UNL1       -0.1892
     19 C          56.9572   93.4563   -7.3517 C.3     1  UNL1        0.2542
     20 O          57.6071   92.9713   -6.0898 O.3     1  UNL1       -0.4560
     21 C          60.5179   92.4579    1.9444 C.ar    1  UNL1        0.0622
     22 C          59.2806   92.5652    2.7856 C.ar    1  UNL1        0.0154
     23 C          59.2329   91.9138    4.1360 C.ar    1  UNL1        0.0013
     24 C          60.4225   91.1551    4.6451 C.ar    1  UNL1        0.0001
     25 C          61.6598   91.0477    3.8039 C.ar    1  UNL1        0.0013
     26 C          61.7074   91.6992    2.4536 C.ar    1  UNL1        0.0154
     27 C          60.3748   90.5036    5.9954 C.ar    1  UNL1        0.0000
     28 C          59.3683   89.4268    6.2736 C.ar    1  UNL1        0.0000
     29 C          59.3206   88.7754    7.6239 C.ar    1  UNL1        0.0015
     30 C          60.2795   89.2009    8.6961 C.ar    1  UNL1        0.0171
     31 C          61.2860   90.2777    8.4179 C.ar    1  UNL1        0.0015
     32 C          61.3337   90.9291    7.0677 C.ar    1  UNL1        0.0000
     33 C          60.2318   88.5495   10.0464 C.ar    1  UNL1        0.0754
     34 C          59.6690   89.1550   11.2980 C.ar    1  UNL1        0.0409
     35 C          59.8279   88.1579   12.4073 C.ar    1  UNL1        0.1214
     36 N          60.4889   86.9361   11.8414 N.ar    1  UNL1       -0.1711
     37 N          60.7385   87.1781   10.3821 N.ar    1  UNL1       -0.2757
     38 H          61.1608   86.5476    9.7549 H       1  UNL1        0.1889
     39 C          64.1193   96.0436   -4.4730 C.3     1  UNL1        0.1183
     40 C          64.7925   95.1809   -5.4990 C.ar    1  UNL1        0.0712
     41 N          64.1369   93.9128   -5.9594 N.ar    1  UNL1       -0.2471
     42 C          64.8102   93.0501   -6.9854 C.ar    1  UNL1        0.0985
     43 C          66.1390   93.4556   -7.5509 C.ar    1  UNL1        0.0203
     44 C          66.7946   94.7238   -7.0905 C.ar    1  UNL1       -0.0015
     45 C          66.1214   95.5864   -6.0645 C.ar    1  UNL1       -0.0069
     46 C          66.7770   96.8545   -5.6041 C.3     1  UNL1        0.0323
@<TRIPOS>BOND
     1    19    20    1
     2    20    13    1
     3    13    14   ar
     4    14    15   ar
     5    15     1    1
     6     1     2   am
     7     2     3    2
     8     2     4   am
     9     4    21    1
    10    21    22   ar
    11    22    23   ar
    12    23    24   ar
    13    24    27    1
    14    27    28   ar
    15    28    29   ar
    16    29    30   ar
    17    30    33    1
    18    33    34   ar
    19    34    35   ar
    20    35    36   ar
    21    36    37   ar
    22    30    31   ar
    23    31    32   ar
    24    24    25   ar
    25    25    26   ar
    26     4     5   am
    27     5     6    2
    28     5     7    1
    29     7     8    1
    30     8     9    1
    31     9    10    1
    32    10    39    1
    33    39    40    1
    34    40    41   ar
    35    41    42   ar
    36    42    43   ar
    37    43    44   ar
    38    44    45   ar
    39    45    46    1
    40    10    11    1
    41    11    12    1
    42    15    16   ar
    43    16    17   ar
    44    17    18   ar
    45    18    13   ar
    46     7     1    1
    47    45    40   ar
    48    26    21   ar
    49    12     7    1
    50    32    27   ar
    51    37    33   ar
    52    37    38    1
@<TRIPOS>MOLECULE
*****
 46 52 0 0 0
SMALL
GASTEIGER

@<TRIPOS>ATOM
      1 N          62.1816   94.3395   -1.5347 N.am    1  UNL1       -0.2222
      2 C          62.4920   93.6742   -0.2266 C.2     1  UNL1        0.3219
      3 O          63.8613   93.3683    0.3040 O.2     1  UNL1       -0.2512
      4 N          61.1926   93.3685    0.4578 N.am    1  UNL1       -0.1907
      5 C          60.0793   93.8448   -0.4273 C.2     1  UNL1        0.2529
      6 O          58.6123   93.7396   -0.1328 O.2     1  UNL1       -0.2724
      7 C          60.6904   94.4449   -1.6588 C.3     1  UNL1        0.1391
      8 C          61.4414   95.0097   -2.8280 C.3     1  UNL1        0.0449
      9 C          60.6929   95.6099   -3.9810 C.3     1  UNL1        0.0746
     10 N          59.1934   95.6452   -3.9648 N.3     1  UNL1       -0.2676
     11 C          58.4424   95.0805   -2.7956 C.3     1  UNL1        0.0746
     12 C          59.1909   94.4803   -1.6426 C.3     1  UNL1        0.0449
     13 C          64.7186   94.3458   -4.5865 C.ar    1  UNL1        0.2293
     14 C          63.7142   93.8697   -3.5793 C.ar    1  UNL1        0.0924
     15 C          63.1860   94.8156   -2.5419 C.ar    1  UNL1        0.1453
     16 N          63.6622   96.2377   -2.5117 N.ar    1  UNL1       -0.2084
     17 C          64.6666   96.7139   -3.5188 C.ar    1  UNL1        0.2027
     18 N          65.1948   95.7679   -4.5563 N.ar    1  UNL1       -0.1892
     19 C          64.6192   92.0484   -5.7955 C.3     1  UNL1        0.2542
     20 O          65.2468   93.4000   -5.6239 O.3     1  UNL1       -0.4560
     21 C          61.0345   92.7033    1.7928 C.ar    1  UNL1        0.0622
     22 C          59.7371   92.8149    2.5374 C.ar    1  UNL1        0.0154
     23 C          59.5790   92.1497    3.8725 C.ar    1  UNL1        0.0013
     24 C          60.7182   91.3729    4.4631 C.ar    1  UNL1        0.0001
     25 C          62.0157   91.2613    3.7185 C.ar    1  UNL1        0.0013
     26 C          62.1737   91.9265    2.3834 C.ar    1  UNL1        0.0154
     27 C          60.5601   90.7077    5.7982 C.ar    1  UNL1        0.0000
     28 C          61.5761   90.9399    6.8769 C.ar    1  UNL1        0.0000
     29 C          61.4180   90.2747    8.2120 C.ar    1  UNL1        0.0015
     30 C          60.2437   89.3772    8.4683 C.ar    1  UNL1        0.0171
     31 C          59.2277   89.1450    7.3896 C.ar    1  UNL1        0.0015
     32 C          59.3858   89.8101    6.0545 C.ar    1  UNL1        0.0000
     33 C          60.0856   88.7120    9.8034 C.ar    1  UNL1        0.0754
     34 C          59.3529   89.2722   10.9863 C.ar    1  UNL1        0.0409
     35 C          59.4469   88.2762   12.1040 C.ar    1  UNL1        0.1214
     36 N          60.2376   87.1004   11.6119 N.ar    1  UNL1       -0.1711
     37 N          60.6324   87.3697   10.1899 N.ar    1  UNL1       -0.2757
     38 H          61.1580   86.7707    9.6119 H       1  UNL1        0.1889
     39 C          58.4448   96.2454   -5.1179 C.3     1  UNL1        0.1183
     40 C          57.4072   95.4382   -5.8401 C.ar    1  UNL1        0.0712
     41 N          55.9510   95.6694   -5.5641 N.ar    1  UNL1       -0.2471
     42 C          54.9134   94.8621   -6.2864 C.ar    1  UNL1        0.0985
     43 C          55.3319   93.8237   -7.2847 C.ar    1  UNL1        0.0203
     44 C          56.7881   93.5926   -7.5607 C.ar    1  UNL1       -0.0015
     45 C          57.8257   94.3998   -6.8385 C.ar    1  UNL1       -0.0069
     46 C          59.2819   94.1687   -7.1145 C.3     1  UNL1        0.0323
@<TRIPOS>BOND
     1    19    20    1
     2    20    13    1
     3    13    14   ar
     4    14    15   ar
     5    15     1    1
     6     1     2   am
     7     2     3    2
     8     2     4   am
     9     4    21    1
    10    21    22   ar
    11    22    23   ar
    12    23    24   ar
    13    24    27    1
    14    27    28   ar
    15    28    29   ar
    16    29    30   ar
    17    30    33    1
    18    33    34   ar
    19    34    35   ar
    20    35    36   ar
    21    36    37   ar
    22    30    31   ar
    23    31    32   ar
    24    24    25   ar
    25    25    26   ar
    26     4     5   am
    27     5     6    2
    28     5     7    1
    29     7     8    1
    30     8     9    1
    31     9    10    1
    32    10    39    1
    33    39    40    1
    34    40    41   ar
    35    41    42   ar
    36    42    43   ar
    37    43    44   ar
    38    44    45   ar
    39    45    46    1
    40    10    11    1
    41    11    12    1
    42    15    16   ar
    43    16    17   ar
    44    17    18   ar
    45    18    13   ar
    46     7     1    1
    47    45    40   ar
    48    26    21   ar
    49    12     7    1
    50    32    27   ar
    51    37    33   ar
    52    37    38    1
@<TRIPOS>MOLECULE
*****
 46 52 0 0 0
SMALL
GASTEIGER

@<TRIPOS>ATOM
      1 N          59.6298   94.4852   -1.7991 N.am    1  UNL1       -0.2222
      2 C          59.1659   93.7401   -0.5827 C.2     1  UNL1        0.3219
      3 O          57.7606   93.2962   -0.3032 O.2     1  UNL1       -0.2512
      4 N          60.3542   93.5167    0.3052 N.am    1  UNL1       -0.1907
      5 C          61.5524   94.1237   -0.3625 C.2     1  UNL1        0.2529
      6 O          62.9524   94.1310    0.1758 O.2     1  UNL1       -0.2724
      7 C          61.1047   94.7223   -1.6631 C.3     1  UNL1        0.1391
      8 C          60.5126   95.2712   -2.9272 C.3     1  UNL1        0.0449
      9 C          61.3864   95.9821   -3.9177 C.3     1  UNL1        0.0746
     10 N          62.8523   96.1440   -3.6440 N.3     1  UNL1       -0.2676
     11 C          63.4444   95.5952   -2.3799 C.3     1  UNL1        0.0746
     12 C          62.5706   94.8843   -1.3894 C.3     1  UNL1        0.0449
     13 C          57.6131   94.3918   -5.2158 C.ar    1  UNL1        0.2293
     14 C          58.4731   93.9597   -4.0653 C.ar    1  UNL1        0.0924
     15 C          58.7698   94.9173   -2.9496 C.ar    1  UNL1        0.1453
     16 N          58.2065   96.3071   -2.9844 N.ar    1  UNL1       -0.2084
     17 C          57.3465   96.7393   -4.1348 C.ar    1  UNL1        0.2027
     18 N          57.0498   95.7816   -5.2506 N.ar    1  UNL1       -0.1892
     19 C          56.8858   92.0313   -6.0212 C.3     1  UNL1        0.2542
     20 O          57.3163   93.4342   -6.3316 O.3     1  UNL1       -0.4560
     21 C          60.3456   92.8103    1.6283 C.ar    1  UNL1        0.0622
     22 C          61.6005   92.1719    2.1458 C.ar    1  UNL1        0.0154
     23 C          61.5919   91.4654    3.4690 C.ar    1  UNL1        0.0013
     24 C          60.3286   91.3974    4.2748 C.ar    1  UNL1        0.0001
     25 C          59.0737   92.0359    3.7574 C.ar    1  UNL1        0.0013
     26 C          59.0823   92.7423    2.4341 C.ar    1  UNL1        0.0154
     27 C          60.3201   90.6910    5.5980 C.ar    1  UNL1        0.0000
     28 C          59.2424   89.6953    5.9097 C.ar    1  UNL1        0.0000
     29 C          59.2339   88.9888    7.2329 C.ar    1  UNL1        0.0015
     30 C          60.3031   89.2783    8.2444 C.ar    1  UNL1        0.0171
     31 C          61.3807   90.2740    7.9328 C.ar    1  UNL1        0.0015
     32 C          61.3892   90.9804    6.6096 C.ar    1  UNL1        0.0000
     33 C          60.2946   88.5718    9.5677 C.ar    1  UNL1        0.0754
     34 C          60.8104   87.1883    9.8319 C.ar    1  UNL1        0.0409
     35 C          60.6033   86.8864   11.2865 C.ar    1  UNL1        0.1214
     36 N          59.9595   88.0832   11.9214 N.ar    1  UNL1       -0.1711
     37 N          59.7687   89.1250   10.8591 N.ar    1  UNL1       -0.2757
     38 H          59.3685   90.0153   10.9869 H       1  UNL1        0.1889
     39 C          63.7262   96.8550   -4.6346 C.3     1  UNL1        0.1183
     40 C          64.7224   96.0816   -5.4466 C.ar    1  UNL1        0.0712
     41 N          66.1513   96.5334   -5.5093 N.ar    1  UNL1       -0.2471
     42 C          67.1475   95.7600   -6.3214 C.ar    1  UNL1        0.0985
     43 C          66.7148   94.5347   -7.0706 C.ar    1  UNL1        0.0203
     44 C          65.2859   94.0828   -7.0079 C.ar    1  UNL1       -0.0015
     45 C          64.2897   94.8562   -6.1959 C.ar    1  UNL1       -0.0069
     46 C          62.8607   94.4043   -6.1331 C.3     1  UNL1        0.0323
@<TRIPOS>BOND
     1    19    20    1
     2    20    13    1
     3    13    14   ar
     4    14    15   ar
     5    15     1    1
     6     1     2   am
     7     2     3    2
     8     2     4   am
     9     4    21    1
    10    21    22   ar
    11    22    23   ar
    12    23    24   ar
    13    24    27    1
    14    27    28   ar
    15    28    29   ar
    16    29    30   ar
    17    30    33    1
    18    33    34   ar
    19    34    35   ar
    20    35    36   ar
    21    36    37   ar
    22    30    31   ar
    23    31    32   ar
    24    24    25   ar
    25    25    26   ar
    26     4     5   am
    27     5     6    2
    28     5     7    1
    29     7     8    1
    30     8     9    1
    31     9    10    1
    32    10    39    1
    33    39    40    1
    34    40    41   ar
    35    41    42   ar
    36    42    43   ar
    37    43    44   ar
    38    44    45   ar
    39    45    46    1
    40    10    11    1
    41    11    12    1
    42    15    16   ar
    43    16    17   ar
    44    17    18   ar
    45    18    13   ar
    46     7     1    1
    47    45    40   ar
    48    26    21   ar
    49    12     7    1
    50    32    27   ar
    51    37    33   ar
    52    37    38    1
@<TRIPOS>MOLECULE
*****
 46 52 0 0 0
SMALL
GASTEIGER

@<TRIPOS>ATOM
      1 N          60.2837   88.8732   10.3677 N.am    1  UNL1       -0.2222
      2 C          59.9381   89.9590    9.3921 C.2     1  UNL1        0.3219
      3 O          59.4069   91.3185    9.7377 O.2     1  UNL1       -0.2512
      4 N          60.2171   89.4465    8.0102 N.am    1  UNL1       -0.1907
      5 C          60.7350   88.0440    8.1317 C.2     1  UNL1        0.2529
      6 O          61.1406   87.1523    6.9958 O.2     1  UNL1       -0.2724
      7 C          60.7761   87.6896    9.5888 C.3     1  UNL1        0.1391
      8 C          60.7615   87.4794   11.0739 C.3     1  UNL1        0.0449
      9 C          61.2154   86.1712   11.6506 C.3     1  UNL1        0.0746
     10 N          61.6840   85.0733   10.7422 N.3     1  UNL1       -0.2676
     11 C          61.6986   85.2836    9.2572 C.3     1  UNL1        0.0746
     12 C          61.2447   86.5917    8.6804 C.3     1  UNL1        0.0449
     13 C          61.2154   89.4447   14.1828 C.ar    1  UNL1        0.2293
     14 C          61.3404   89.3615   12.6904 C.ar    1  UNL1        0.0924
     15 C          60.1586   88.9563   11.8602 C.ar    1  UNL1        0.1453
     16 N          58.8518   88.6343   12.5224 N.ar    1  UNL1       -0.2084
     17 C          58.7267   88.7174   14.0148 C.ar    1  UNL1        0.2027
     18 N          59.9086   89.1226   14.8451 N.ar    1  UNL1       -0.1892
     19 C          63.5545   90.5588   14.3745 C.3     1  UNL1        0.2542
     20 O          62.3970   89.8499   15.0131 O.3     1  UNL1       -0.4560
     21 C          60.0138   90.2035    6.7314 C.ar    1  UNL1        0.0622
     22 C          58.6271   90.5546    6.2799 C.ar    1  UNL1        0.0154
     23 C          58.4239   91.3117    5.0011 C.ar    1  UNL1        0.0013
     24 C          59.6073   91.7177    4.1737 C.ar    1  UNL1        0.0001
     25 C          60.9941   91.3667    4.6251 C.ar    1  UNL1        0.0013
     26 C          61.1972   90.6096    5.9040 C.ar    1  UNL1        0.0154
     27 C          59.4040   92.4748    2.8948 C.ar    1  UNL1        0.0000
     28 C          58.3395   92.0446    1.9296 C.ar    1  UNL1        0.0000
     29 C          58.1362   92.8017    0.6507 C.ar    1  UNL1        0.0015
     30 C          58.9976   93.9890    0.3371 C.ar    1  UNL1        0.0171
     31 C          60.0622   94.4193    1.3023 C.ar    1  UNL1        0.0015
     32 C          60.2654   93.6622    2.5811 C.ar    1  UNL1        0.0000
     33 C          58.7943   94.7461   -0.9418 C.ar    1  UNL1        0.0754
     34 C          57.6970   95.7306   -1.2187 C.ar    1  UNL1        0.0409
     35 C          57.8772   96.2446   -2.6163 C.ar    1  UNL1        0.1214
     36 N          59.0859   95.5779   -3.2032 N.ar    1  UNL1       -0.1711
     37 N          59.6528   94.6517   -2.1682 N.ar    1  UNL1       -0.2757
     38 H          60.4486   94.0820   -2.2752 H       1  UNL1        0.1889
     39 C          62.1379   83.7651   11.3191 C.3     1  UNL1        0.1183
     40 C          62.8658   83.7359   12.6302 C.ar    1  UNL1        0.0712
     41 N          63.7317   84.8925   13.0334 N.ar    1  UNL1       -0.2471
     42 C          64.4596   84.8632   14.3446 C.ar    1  UNL1        0.0985
     43 C          64.3217   83.6773   15.2527 C.ar    1  UNL1        0.0203
     44 C          63.4558   82.5207   14.8495 C.ar    1  UNL1       -0.0015
     45 C          62.7279   82.5499   13.5384 C.ar    1  UNL1       -0.0069
     46 C          61.8621   81.3933   13.1352 C.3     1  UNL1        0.0323
@<TRIPOS>BOND
     1    19    20    1
     2    20    13    1
     3    13    14   ar
     4    14    15   ar
     5    15     1    1
     6     1     2   am
     7     2     3    2
     8     2     4   am
     9     4    21    1
    10    21    22   ar
    11    22    23   ar
    12    23    24   ar
    13    24    27    1
    14    27    28   ar
    15    28    29   ar
    16    29    30   ar
    17    30    33    1
    18    33    34   ar
    19    34    35   ar
    20    35    36   ar
    21    36    37   ar
    22    30    31   ar
    23    31    32   ar
    24    24    25   ar
    25    25    26   ar
    26     4     5   am
    27     5     6    2
    28     5     7    1
    29     7     8    1
    30     8     9    1
    31     9    10    1
    32    10    39    1
    33    39    40    1
    34    40    41   ar
    35    41    42   ar
    36    42    43   ar
    37    43    44   ar
    38    44    45   ar
    39    45    46    1
    40    10    11    1
    41    11    12    1
    42    15    16   ar
    43    16    17   ar
    44    17    18   ar
    45    18    13   ar
    46     7     1    1
    47    45    40   ar
    48    26    21   ar
    49    12     7    1
    50    32    27   ar
    51    37    33   ar
    52    37    38    1
