@<TRIPOS>MOLECULE
*****
 24 26 0 0 0
SMALL
GASTEIGER

@<TRIPOS>ATOM
      1 O          61.1848   88.7646    9.3068 O.2     1  UNL1       -0.2262
      2 C          61.7736   88.6047   10.6772 C.2     1  UNL1        0.4052
      3 N          62.7345   89.6284   11.2047 N.am    1  UNL1       -0.2460
      4 C          63.3233   89.4685   12.5751 C.3     1  UNL1        0.0968
      5 C          64.2842   90.4923   13.1027 C.3     1  UNL1        0.0234
      6 C          64.6565   91.6761   12.2599 C.3     1  UNL1        0.0230
      7 C          64.0678   91.8360   10.8896 C.3     1  UNL1        0.0234
      8 C          63.1068   90.8121   10.3620 C.3     1  UNL1        0.0968
      9 O          61.4013   87.4209   11.5199 O.3     1  UNL1       -0.4295
     10 C          61.2794   86.0632   10.8940 C.3     1  UNL1        0.2367
     11 C          62.3515   85.0372   11.1133 C.ar    1  UNL1        0.0213
     12 C          63.0313   84.3998    9.9380 C.ar    1  UNL1       -0.0007
     13 C          64.1033   83.3738   10.1574 C.ar    1  UNL1       -0.0002
     14 C          64.4955   82.9853   11.5521 C.ar    1  UNL1       -0.0000
     15 C          63.8157   83.6227   12.7274 C.ar    1  UNL1       -0.0002
     16 C          62.7437   84.6487   12.5080 C.ar    1  UNL1       -0.0007
     17 C          65.6175   92.6998   12.7875 C.3     1  UNL1        0.0887
     18 N          65.7723   94.0157   12.0844 N.pl3   1  UNL1       -0.3130
     19 H          65.3073   94.8137   12.4252 H       1  UNL1        0.1487
     20 C          66.6357   94.1158   10.8619 C.ar    1  UNL1        0.1599
     21 N          67.6116   93.0814   10.3845 N.ar    1  UNL1       -0.2227
     22 C          68.2538   93.5942    9.1297 C.ar    1  UNL1        0.1079
     23 C          67.6750   94.9455    8.8315 C.ar    1  UNL1        0.0588
     24 S          66.6749   95.2679    9.9020 S.2     1  UNL1       -0.0512
@<TRIPOS>BOND
     1     1     2    2
     2     2     9    1
     3     9    10    1
     4    10    11    1
     5    11    12   ar
     6    12    13   ar
     7    13    14   ar
     8    14    15   ar
     9    15    16   ar
    10     2     3   am
    11     3     4    1
    12     4     5    1
    13     5     6    1
    14     6    17    1
    15    17    18    1
    16    18    20    1
    17    20    21   ar
    18    21    22   ar
    19    22    23   ar
    20    23    24   ar
    21     6     7    1
    22     7     8    1
    23    16    11   ar
    24     8     3    1
    25    24    20   ar
    26    18    19    1
@<TRIPOS>MOLECULE
*****
 24 26 0 0 0
SMALL
GASTEIGER

@<TRIPOS>ATOM
      1 O          60.0028   88.5036   12.1698 O.2     1  UNL1       -0.2262
      2 C          60.7698   89.1971   11.0832 C.2     1  UNL1        0.4052
      3 N          61.9901   90.0008   11.4221 N.am    1  UNL1       -0.2460
      4 C          62.7571   90.6942   10.3354 C.3     1  UNL1        0.0968
      5 C          63.9773   91.4980   10.6744 C.3     1  UNL1        0.0234
      6 C          64.4306   91.6083   12.1000 C.3     1  UNL1        0.0230
      7 C          63.6636   90.9148   13.1867 C.3     1  UNL1        0.0234
      8 C          62.4433   90.1111   12.8477 C.3     1  UNL1        0.0968
      9 O          60.3165   89.0867    9.6575 O.3     1  UNL1       -0.4295
     10 C          59.8008   87.7793    9.1335 C.3     1  UNL1        0.2367
     11 C          60.7524   86.7774    8.5497 C.ar    1  UNL1        0.0213
     12 C          60.3451   85.9617    7.3587 C.ar    1  UNL1       -0.0007
     13 C          61.2967   84.9599    6.7749 C.ar    1  UNL1       -0.0002
     14 C          62.6557   84.7739    7.3822 C.ar    1  UNL1       -0.0000
     15 C          63.0630   85.5897    8.5732 C.ar    1  UNL1       -0.0002
     16 C          62.1113   86.5915    9.1570 C.ar    1  UNL1       -0.0007
     17 C          65.6509   92.4120   12.4389 C.3     1  UNL1        0.0887
     18 N          65.7138   93.8673   12.0808 N.pl3   1  UNL1       -0.3130
     19 H          65.2361   94.5304   12.6297 H       1  UNL1        0.1487
     20 C          66.5045   94.3121   10.8863 C.ar    1  UNL1        0.1599
     21 N          67.5611   93.5141   10.1812 N.ar    1  UNL1       -0.2227
     22 C          68.0871   94.3419    9.0463 C.ar    1  UNL1        0.1079
     23 C          67.3558   95.6516    9.0499 C.ar    1  UNL1        0.0588
     24 S          66.3777   95.6332   10.1871 S.2     1  UNL1       -0.0512
@<TRIPOS>BOND
     1     1     2    2
     2     2     9    1
     3     9    10    1
     4    10    11    1
     5    11    12   ar
     6    12    13   ar
     7    13    14   ar
     8    14    15   ar
     9    15    16   ar
    10     2     3   am
    11     3     4    1
    12     4     5    1
    13     5     6    1
    14     6    17    1
    15    17    18    1
    16    18    20    1
    17    20    21   ar
    18    21    22   ar
    19    22    23   ar
    20    23    24   ar
    21     6     7    1
    22     7     8    1
    23    16    11   ar
    24     8     3    1
    25    24    20   ar
    26    18    19    1
@<TRIPOS>MOLECULE
*****
 24 26 0 0 0
SMALL
GASTEIGER

@<TRIPOS>ATOM
      1 O          60.1886   88.2717   12.1538 O.2     1  UNL1       -0.2262
      2 C          60.7907   89.0382   11.0136 C.2     1  UNL1        0.4052
      3 N          61.9681   89.9364   11.2524 N.am    1  UNL1       -0.2460
      4 C          62.5701   90.7028   10.1122 C.3     1  UNL1        0.0968
      5 C          63.7475   91.6011   10.3510 C.3     1  UNL1        0.0234
      6 C          64.3228   91.7328   11.7301 C.3     1  UNL1        0.0230
      7 C          63.7207   90.9664   12.8703 C.3     1  UNL1        0.0234
      8 C          62.5433   90.0681   12.6314 C.3     1  UNL1        0.0968
      9 O          60.2154   88.9064    9.6345 O.3     1  UNL1       -0.4295
     10 C          59.7584   87.5670    9.1374 C.3     1  UNL1        0.2367
     11 C          60.7450   86.6183    8.5236 C.ar    1  UNL1        0.0213
     12 C          60.3623   85.8162    7.3153 C.ar    1  UNL1       -0.0007
     13 C          61.3489   84.8675    6.7016 C.ar    1  UNL1       -0.0002
     14 C          62.7181   84.7209    7.2963 C.ar    1  UNL1       -0.0000
     15 C          63.1008   85.5230    8.5046 C.ar    1  UNL1       -0.0002
     16 C          62.1143   86.4717    9.1183 C.ar    1  UNL1       -0.0007
     17 C          65.5001   92.6310   11.9689 C.3     1  UNL1        0.0887
     18 N          66.7907   92.0575   12.4744 N.pl3   1  UNL1       -0.3130
     19 H          67.3289   91.4708   11.8953 H       1  UNL1        0.1487
     20 C          67.2612   92.3779   13.8621 C.ar    1  UNL1        0.1599
     21 N          68.6865   92.5744   14.2866 N.ar    1  UNL1       -0.2227
     22 C          68.6953   92.8760   15.7559 C.ar    1  UNL1        0.1079
     23 C          67.2754   92.8660   16.2397 C.ar    1  UNL1        0.0588
     24 S          66.3891   92.5582   15.0692 S.2     1  UNL1       -0.0512
@<TRIPOS>BOND
     1     1     2    2
     2     2     9    1
     3     9    10    1
     4    10    11    1
     5    11    12   ar
     6    12    13   ar
     7    13    14   ar
     8    14    15   ar
     9    15    16   ar
    10     2     3   am
    11     3     4    1
    12     4     5    1
    13     5     6    1
    14     6    17    1
    15    17    18    1
    16    18    20    1
    17    20    21   ar
    18    21    22   ar
    19    22    23   ar
    20    23    24   ar
    21     6     7    1
    22     7     8    1
    23    16    11   ar
    24     8     3    1
    25    24    20   ar
    26    18    19    1
@<TRIPOS>MOLECULE
*****
 24 26 0 0 0
SMALL
GASTEIGER

@<TRIPOS>ATOM
      1 O          63.2156   91.5853   16.8050 O.2     1  UNL1       -0.2262
      2 C          63.7481   90.8231   15.6279 C.2     1  UNL1        0.4052
      3 N          63.7565   89.3233   15.6471 N.am    1  UNL1       -0.2460
      4 C          64.2891   88.5611   14.4700 C.3     1  UNL1        0.0968
      5 C          64.2974   87.0613   14.4891 C.3     1  UNL1        0.0234
      6 C          63.7731   86.3236   15.6854 C.3     1  UNL1        0.0230
      7 C          63.2405   87.0857   16.8624 C.3     1  UNL1        0.0234
      8 C          63.2322   88.5856   16.8433 C.3     1  UNL1        0.0968
      9 O          64.2724   91.5609   14.4317 O.3     1  UNL1       -0.4295
     10 C          65.7452   91.8065   14.2881 C.3     1  UNL1        0.2367
     11 C          66.3335   92.0671   12.9331 C.ar    1  UNL1        0.0213
     12 C          65.4628   92.5754   11.8226 C.ar    1  UNL1       -0.0007
     13 C          66.0512   92.8360   10.4676 C.ar    1  UNL1       -0.0002
     14 C          67.5103   92.5883   10.2233 C.ar    1  UNL1       -0.0000
     15 C          68.3810   92.0800   11.3339 C.ar    1  UNL1       -0.0002
     16 C          67.7926   91.8194   12.6888 C.ar    1  UNL1       -0.0007
     17 C          63.7815   84.8237   15.7045 C.3     1  UNL1        0.0887
     18 N          62.5331   84.0624   15.3698 N.pl3   1  UNL1       -0.3130
     19 H          61.6993   84.2439   15.8608 H       1  UNL1        0.1487
     20 C          62.5551   83.0247   14.2870 C.ar    1  UNL1        0.1599
     21 N          62.3480   81.5508   14.4740 N.ar    1  UNL1       -0.2227
     22 C          62.4530   80.8937   13.1297 C.ar    1  UNL1        0.1079
     23 C          62.7250   81.9614   12.1118 C.ar    1  UNL1        0.0588
     24 S          62.7881   83.2784   12.8271 S.2     1  UNL1       -0.0512
@<TRIPOS>BOND
     1     1     2    2
     2     2     9    1
     3     9    10    1
     4    10    11    1
     5    11    12   ar
     6    12    13   ar
     7    13    14   ar
     8    14    15   ar
     9    15    16   ar
    10     2     3   am
    11     3     4    1
    12     4     5    1
    13     5     6    1
    14     6    17    1
    15    17    18    1
    16    18    20    1
    17    20    21   ar
    18    21    22   ar
    19    22    23   ar
    20    23    24   ar
    21     6     7    1
    22     7     8    1
    23    16    11   ar
    24     8     3    1
    25    24    20   ar
    26    18    19    1
@<TRIPOS>MOLECULE
*****
 24 26 0 0 0
SMALL
GASTEIGER

@<TRIPOS>ATOM
      1 O          63.1646   91.2810   16.8088 O.2     1  UNL1       -0.2262
      2 C          63.6360   90.5443   15.5902 C.2     1  UNL1        0.4052
      3 N          63.6859   89.0452   15.5926 N.am    1  UNL1       -0.2460
      4 C          64.1572   88.3085   14.3739 C.3     1  UNL1        0.0968
      5 C          64.2071   86.8094   14.3763 C.3     1  UNL1        0.0234
      6 C          63.7856   86.0468   15.5974 C.3     1  UNL1        0.0230
      7 C          63.3142   86.7835   16.8161 C.3     1  UNL1        0.0234
      8 C          63.2643   88.2827   16.8136 C.3     1  UNL1        0.0968
      9 O          64.0575   91.3069   14.3691 O.3     1  UNL1       -0.4295
     10 C          65.4262   91.1003   13.7913 C.3     1  UNL1        0.2367
     11 C          66.6097   91.7924   14.4001 C.ar    1  UNL1        0.0213
     12 C          67.9431   91.7404   13.7151 C.ar    1  UNL1       -0.0007
     13 C          69.1264   92.4325   14.3239 C.ar    1  UNL1       -0.0002
     14 C          68.9764   93.1765   15.6177 C.ar    1  UNL1       -0.0000
     15 C          67.6430   93.2284   16.3027 C.ar    1  UNL1       -0.0002
     16 C          66.4596   92.5364   15.6939 C.ar    1  UNL1       -0.0007
     17 C          63.8355   84.5477   15.5998 C.3     1  UNL1        0.0887
     18 N          62.5926   83.7555   15.3212 N.pl3   1  UNL1       -0.3130
     19 H          61.7734   83.9263   15.8399 H       1  UNL1        0.1487
     20 C          62.5978   82.7030   14.2525 C.ar    1  UNL1        0.1599
     21 N          62.3531   81.2373   14.4572 N.ar    1  UNL1       -0.2227
     22 C          62.4527   80.5598   13.1226 C.ar    1  UNL1        0.1079
     23 C          62.7591   81.6068   12.0930 C.ar    1  UNL1        0.0588
     24 S          62.8487   82.9314   12.7913 S.2     1  UNL1       -0.0512
@<TRIPOS>BOND
     1     1     2    2
     2     2     9    1
     3     9    10    1
     4    10    11    1
     5    11    12   ar
     6    12    13   ar
     7    13    14   ar
     8    14    15   ar
     9    15    16   ar
    10     2     3   am
    11     3     4    1
    12     4     5    1
    13     5     6    1
    14     6    17    1
    15    17    18    1
    16    18    20    1
    17    20    21   ar
    18    21    22   ar
    19    22    23   ar
    20    23    24   ar
    21     6     7    1
    22     7     8    1
    23    16    11   ar
    24     8     3    1
    25    24    20   ar
    26    18    19    1
@<TRIPOS>MOLECULE
*****
 24 26 0 0 0
SMALL
GASTEIGER

@<TRIPOS>ATOM
      1 O          60.4198   88.4419    8.3822 O.2     1  UNL1       -0.2262
      2 C          61.1780   87.8277    9.5214 C.2     1  UNL1        0.4052
      3 N          61.9345   88.7021   10.4769 N.am    1  UNL1       -0.2460
      4 C          62.6926   88.0878   11.6162 C.3     1  UNL1        0.0968
      5 C          63.4491   88.9622   12.5717 C.3     1  UNL1        0.0234
      6 C          63.4475   90.4510   12.3880 C.3     1  UNL1        0.0230
      7 C          62.6893   91.0653   11.2488 C.3     1  UNL1        0.0234
      8 C          61.9328   90.1908   10.2932 C.3     1  UNL1        0.0968
      9 O          61.1796   86.3389    9.7051 O.3     1  UNL1       -0.4295
     10 C          62.4166   85.5470    9.4005 C.3     1  UNL1        0.2367
     11 C          62.9345   84.5522   10.3967 C.ar    1  UNL1        0.0213
     12 C          63.8839   83.4768    9.9585 C.ar    1  UNL1       -0.0007
     13 C          64.4017   82.4820   10.9546 C.ar    1  UNL1       -0.0002
     14 C          63.9701   82.5627   12.3889 C.ar    1  UNL1       -0.0000
     15 C          63.0207   83.6381   12.8271 C.ar    1  UNL1       -0.0002
     16 C          62.5029   84.6328   11.8310 C.ar    1  UNL1       -0.0007
     17 C          64.2040   91.3254   13.3435 C.3     1  UNL1        0.0887
     18 N          65.5148   91.9275   12.9321 N.pl3   1  UNL1       -0.3130
     19 H          65.6903   92.1234   11.9834 H       1  UNL1        0.1487
     20 C          66.5581   92.2312   13.9661 C.ar    1  UNL1        0.1599
     21 N          68.0432   92.1873   13.7596 N.ar    1  UNL1       -0.2227
     22 C          68.7025   92.5611   15.0540 C.ar    1  UNL1        0.1079
     23 C          67.6249   92.8361   16.0607 C.ar    1  UNL1        0.0588
     24 S          66.2996   92.6322   15.3882 S.2     1  UNL1       -0.0512
@<TRIPOS>BOND
     1     1     2    2
     2     2     9    1
     3     9    10    1
     4    10    11    1
     5    11    12   ar
     6    12    13   ar
     7    13    14   ar
     8    14    15   ar
     9    15    16   ar
    10     2     3   am
    11     3     4    1
    12     4     5    1
    13     5     6    1
    14     6    17    1
    15    17    18    1
    16    18    20    1
    17    20    21   ar
    18    21    22   ar
    19    22    23   ar
    20    23    24   ar
    21     6     7    1
    22     7     8    1
    23    16    11   ar
    24     8     3    1
    25    24    20   ar
    26    18    19    1
@<TRIPOS>MOLECULE
*****
 24 26 0 0 0
SMALL
GASTEIGER

@<TRIPOS>ATOM
      1 O          60.7777   87.2529    9.5670 O.2     1  UNL1       -0.2262
      2 C          61.5595   87.3451   10.8438 C.2     1  UNL1        0.4052
      3 N          62.3393   88.5874   11.1577 N.am    1  UNL1       -0.2460
      4 C          63.1211   88.6796   12.4345 C.3     1  UNL1        0.0968
      5 C          63.9009   89.9219   12.7484 C.3     1  UNL1        0.0234
      6 C          63.8989   91.0721   11.7855 C.3     1  UNL1        0.0230
      7 C          63.1171   90.9799   10.5087 C.3     1  UNL1        0.0234
      8 C          62.3373   89.7375   10.1948 C.3     1  UNL1        0.0968
      9 O          61.5615   86.1950   11.8068 O.3     1  UNL1       -0.4295
     10 C          62.7906   85.3494   11.9627 C.3     1  UNL1        0.2367
     11 C          62.6860   83.9765   12.5579 C.ar    1  UNL1        0.0213
     12 C          62.4475   83.8134   14.0298 C.ar    1  UNL1       -0.0007
     13 C          62.3429   82.4405   14.6249 C.ar    1  UNL1       -0.0002
     14 C          62.4767   81.2308   13.7482 C.ar    1  UNL1       -0.0000
     15 C          62.7152   81.3939   12.2763 C.ar    1  UNL1       -0.0002
     16 C          62.8198   82.7668   11.6812 C.ar    1  UNL1       -0.0007
     17 C          64.6787   92.3144   12.0994 C.3     1  UNL1        0.0887
     18 N          66.1373   92.2193   12.4362 N.pl3   1  UNL1       -0.3130
     19 H          66.7856   91.9519   11.7453 H       1  UNL1        0.1487
     20 C          66.6081   92.5316   13.8257 C.ar    1  UNL1        0.1599
     21 N          67.8225   93.3353   14.1854 N.ar    1  UNL1       -0.2227
     22 C          67.9121   93.3955   15.6815 C.ar    1  UNL1        0.1079
     23 C          66.7531   92.6289   16.2466 C.ar    1  UNL1        0.0588
     24 S          65.9471   92.0950   15.0996 S.2     1  UNL1       -0.0512
@<TRIPOS>BOND
     1     1     2    2
     2     2     9    1
     3     9    10    1
     4    10    11    1
     5    11    12   ar
     6    12    13   ar
     7    13    14   ar
     8    14    15   ar
     9    15    16   ar
    10     2     3   am
    11     3     4    1
    12     4     5    1
    13     5     6    1
    14     6    17    1
    15    17    18    1
    16    18    20    1
    17    20    21   ar
    18    21    22   ar
    19    22    23   ar
    20    23    24   ar
    21     6     7    1
    22     7     8    1
    23    16    11   ar
    24     8     3    1
    25    24    20   ar
    26    18    19    1
@<TRIPOS>MOLECULE
*****
 24 26 0 0 0
SMALL
GASTEIGER

@<TRIPOS>ATOM
      1 O          62.7261   90.8695   10.9721 O.2     1  UNL1       -0.2262
      2 C          63.4198   90.6146   12.2774 C.2     1  UNL1        0.4052
      3 N          63.5394   89.2145   12.8022 N.am    1  UNL1       -0.2460
      4 C          64.2331   88.9596   14.1075 C.3     1  UNL1        0.0968
      5 C          64.3528   87.5595   14.6324 C.3     1  UNL1        0.0234
      6 C          63.7787   86.4143   13.8519 C.3     1  UNL1        0.0230
      7 C          63.0850   86.6693   12.5466 C.3     1  UNL1        0.0234
      8 C          62.9654   88.0694   12.0218 C.3     1  UNL1        0.0968
      9 O          63.9939   91.7598   13.0579 O.3     1  UNL1       -0.4295
     10 C          65.3630   92.2783   12.7314 C.3     1  UNL1        0.2367
     11 C          66.4174   92.3345   13.7969 C.ar    1  UNL1        0.0213
     12 C          66.0490   92.7273   15.1968 C.ar    1  UNL1       -0.0007
     13 C          67.1034   92.7834   16.2621 C.ar    1  UNL1       -0.0002
     14 C          68.5263   92.4467   15.9275 C.ar    1  UNL1       -0.0000
     15 C          68.8948   92.0539   14.5275 C.ar    1  UNL1       -0.0002
     16 C          67.8403   91.9978   13.4622 C.ar    1  UNL1       -0.0007
     17 C          63.8984   85.0143   14.3767 C.3     1  UNL1        0.0887
     18 N          62.6895   84.1278   14.4312 N.pl3   1  UNL1       -0.3130
     19 H          61.8809   84.4268   14.9066 H       1  UNL1        0.1487
     20 C          62.7127   82.7860   13.7612 C.ar    1  UNL1        0.1599
     21 N          62.5537   81.4582   14.4410 N.ar    1  UNL1       -0.2227
     22 C          62.6416   80.3879   13.3938 C.ar    1  UNL1        0.1079
     23 C          62.8550   81.0540   12.0668 C.ar    1  UNL1        0.0588
     24 S          62.8989   82.5362   12.2939 S.2     1  UNL1       -0.0512
@<TRIPOS>BOND
     1     1     2    2
     2     2     9    1
     3     9    10    1
     4    10    11    1
     5    11    12   ar
     6    12    13   ar
     7    13    14   ar
     8    14    15   ar
     9    15    16   ar
    10     2     3   am
    11     3     4    1
    12     4     5    1
    13     5     6    1
    14     6    17    1
    15    17    18    1
    16    18    20    1
    17    20    21   ar
    18    21    22   ar
    19    22    23   ar
    20    23    24   ar
    21     6     7    1
    22     7     8    1
    23    16    11   ar
    24     8     3    1
    25    24    20   ar
    26    18    19    1
@<TRIPOS>MOLECULE
*****
 24 26 0 0 0
SMALL
GASTEIGER

@<TRIPOS>ATOM
      1 O          65.6226   91.4604   14.6708 O.2     1  UNL1       -0.2262
      2 C          65.4849   91.8092   13.2184 C.2     1  UNL1        0.4052
      3 N          64.3168   91.2941   12.4309 N.am    1  UNL1       -0.2460
      4 C          64.1791   91.6429   10.9785 C.3     1  UNL1        0.0968
      5 C          63.0111   91.1279   10.1910 C.3     1  UNL1        0.0234
      6 C          61.9806   90.2640   10.8558 C.3     1  UNL1        0.0230
      7 C          62.1183   89.9152   12.3082 C.3     1  UNL1        0.0234
      8 C          63.2864   90.4303   13.0957 C.3     1  UNL1        0.0968
      9 O          66.5154   92.6730   12.5536 O.3     1  UNL1       -0.4295
     10 C          66.2263   94.1222   12.2962 C.3     1  UNL1        0.2367
     11 C          66.6177   94.7444   10.9886 C.ar    1  UNL1        0.0213
     12 C          66.5219   96.2302   10.8066 C.ar    1  UNL1       -0.0007
     13 C          66.9133   96.8524    9.4991 C.ar    1  UNL1       -0.0002
     14 C          67.4004   95.9887    8.3735 C.ar    1  UNL1       -0.0000
     15 C          67.4962   94.5029    8.5556 C.ar    1  UNL1       -0.0002
     16 C          67.1048   93.8808    9.8631 C.ar    1  UNL1       -0.0007
     17 C          60.8125   89.7490   10.0683 C.3     1  UNL1        0.0887
     18 N          60.2166   88.4124   10.3977 N.pl3   1  UNL1       -0.3130
     19 H          59.2566   88.3385   10.6029 H       1  UNL1        0.1487
     20 C          61.0834   87.1884   10.4144 C.ar    1  UNL1        0.1599
     21 N          61.3840   86.3371   11.6124 N.ar    1  UNL1       -0.2227
     22 C          62.2883   85.2233   11.1745 C.ar    1  UNL1        0.1079
     23 C          62.5466   85.3861    9.7059 C.ar    1  UNL1        0.0588
     24 S          61.8020   86.6006    9.2361 S.2     1  UNL1       -0.0512
@<TRIPOS>BOND
     1     1     2    2
     2     2     9    1
     3     9    10    1
     4    10    11    1
     5    11    12   ar
     6    12    13   ar
     7    13    14   ar
     8    14    15   ar
     9    15    16   ar
    10     2     3   am
    11     3     4    1
    12     4     5    1
    13     5     6    1
    14     6    17    1
    15    17    18    1
    16    18    20    1
    17    20    21   ar
    18    21    22   ar
    19    22    23   ar
    20    23    24   ar
    21     6     7    1
    22     7     8    1
    23    16    11   ar
    24     8     3    1
    25    24    20   ar
    26    18    19    1
