@<TRIPOS>MOLECULE
*****
 27 30 0 0 0
SMALL
GASTEIGER

@<TRIPOS>ATOM
      1 C          66.5118   94.9765   11.3556 C.3     1  UNL1        0.0534
      2 C          65.8492   93.7045   11.7951 C.ar    1  UNL1        0.0730
      3 N          64.8566   92.9076   11.0015 N.ar    1  UNL1       -0.2299
      4 C          64.4569   91.7167   11.8214 C.ar    1  UNL1        0.1604
      5 C          63.5103   90.5847   11.5519 C.ar    1  UNL1        0.0813
      6 C          63.3092   89.5137   12.5826 C.ar    1  UNL1        0.0365
      7 C          64.0547   89.5746   13.8828 C.ar    1  UNL1        0.0857
      8 C          65.0013   90.7066   14.1522 C.ar    1  UNL1        0.0989
      9 N          65.2023   91.7777   13.1215 N.ar    1  UNL1       -0.2906
     10 C          66.0628   93.0062   13.1053 C.ar    1  UNL1        0.0567
     11 C          66.9766   93.4572   14.2061 C.3     1  UNL1        0.0517
     12 N          63.8536   88.5036   14.9135 N.ar    1  UNL1       -0.2716
     13 C          64.2967   87.0985   14.6314 C.ar    1  UNL1        0.0830
     14 C          64.0957   86.0275   15.6621 C.ar    1  UNL1        0.0192
     15 C          63.4516   86.3614   16.9750 C.ar    1  UNL1        0.0064
     16 C          63.0085   87.7665   17.2572 C.ar    1  UNL1        0.0611
     17 C          63.2096   88.8375   16.2264 C.ar    1  UNL1        0.2649
     18 O          62.7665   90.2426   16.5085 O.2     1  UNL1       -0.2666
     19 N          62.7648   90.5238   10.2516 N.pl3   1  UNL1       -0.3267
     20 H          63.1870   90.8549    9.4262 H       1  UNL1        0.1472
     21 C          61.3761   89.9584   10.2091 C.3     1  UNL1        0.1144
     22 C          61.1090   88.6802    9.4710 C.ar    1  UNL1       -0.0026
     23 C          62.0197   87.5027    9.6564 C.ar    1  UNL1       -0.0026
     24 C          61.7526   86.2245    8.9183 C.ar    1  UNL1       -0.0003
     25 C          60.5748   86.1237    7.9949 C.ar    1  UNL1       -0.0000
     26 C          59.6642   87.3011    7.8095 C.ar    1  UNL1       -0.0003
     27 C          59.9312   88.5794    8.5476 C.ar    1  UNL1       -0.0026
@<TRIPOS>BOND
     1     1     2    1
     2     2     3   ar
     3     3     4   ar
     4     4     5   ar
     5     5    19    1
     6    19    21    1
     7    21    22    1
     8    22    23   ar
     9    23    24   ar
    10    24    25   ar
    11    25    26   ar
    12    26    27   ar
    13     5     6   ar
    14     6     7   ar
    15     7    12    1
    16    12    13   ar
    17    13    14   ar
    18    14    15   ar
    19    15    16   ar
    20    16    17   ar
    21    17    18    2
    22     7     8   ar
    23     8     9   ar
    24     9    10   ar
    25    10    11    1
    26    10     2   ar
    27     9     4   ar
    28    27    22   ar
    29    17    12   ar
    30    19    20    1
@<TRIPOS>MOLECULE
*****
 27 30 0 0 0
SMALL
GASTEIGER

@<TRIPOS>ATOM
      1 C          63.1696   89.4462   16.3272 C.3     1  UNL1        0.0534
      2 C          63.5216   90.1168   15.0324 C.ar    1  UNL1        0.0730
      3 N          62.9007   89.8352   13.6963 N.ar    1  UNL1       -0.2299
      4 C          63.5518   90.7311   12.6846 C.ar    1  UNL1        0.1604
      5 C          63.3450   90.8942   11.2079 C.ar    1  UNL1        0.0813
      6 C          64.1615   91.8925   10.4420 C.ar    1  UNL1        0.0365
      7 C          65.1848   92.7276   11.1527 C.ar    1  UNL1        0.0857
      8 C          65.3916   92.5645   12.6294 C.ar    1  UNL1        0.0989
      9 N          64.5751   91.5663   13.3953 N.ar    1  UNL1       -0.2906
     10 C          64.5565   91.1866   14.8464 C.ar    1  UNL1        0.0567
     11 C          65.4210   91.7737   15.9225 C.3     1  UNL1        0.0517
     12 N          66.0014   93.7260   10.3868 N.ar    1  UNL1       -0.2716
     13 C          65.5353   95.1472   10.2735 C.ar    1  UNL1        0.0830
     14 C          66.3518   96.1455    9.5076 C.ar    1  UNL1        0.0192
     15 C          67.6345   95.7226    8.8550 C.ar    1  UNL1        0.0064
     16 C          68.1007   94.3014    8.9683 C.ar    1  UNL1        0.0611
     17 C          67.2841   93.3031    9.7342 C.ar    1  UNL1        0.2649
     18 O          67.7502   91.8819    9.8475 O.2     1  UNL1       -0.2666
     19 N          62.3216   90.0589   10.4971 N.pl3   1  UNL1       -0.3267
     20 H          61.6340   90.4910    9.9406 H       1  UNL1        0.1472
     21 C          62.3460   88.5654   10.6343 C.3     1  UNL1        0.1144
     22 C          61.6051   87.7097    9.6500 C.ar    1  UNL1       -0.0026
     23 C          60.1699   88.0058    9.3298 C.ar    1  UNL1       -0.0026
     24 C          59.4290   87.1500    8.3456 C.ar    1  UNL1       -0.0003
     25 C          60.1234   85.9981    7.6815 C.ar    1  UNL1       -0.0000
     26 C          61.5585   85.7020    8.0017 C.ar    1  UNL1       -0.0003
     27 C          62.2995   86.5577    8.9859 C.ar    1  UNL1       -0.0026
@<TRIPOS>BOND
     1     1     2    1
     2     2     3   ar
     3     3     4   ar
     4     4     5   ar
     5     5    19    1
     6    19    21    1
     7    21    22    1
     8    22    23   ar
     9    23    24   ar
    10    24    25   ar
    11    25    26   ar
    12    26    27   ar
    13     5     6   ar
    14     6     7   ar
    15     7    12    1
    16    12    13   ar
    17    13    14   ar
    18    14    15   ar
    19    15    16   ar
    20    16    17   ar
    21    17    18    2
    22     7     8   ar
    23     8     9   ar
    24     9    10   ar
    25    10    11    1
    26    10     2   ar
    27     9     4   ar
    28    27    22   ar
    29    17    12   ar
    30    19    20    1
@<TRIPOS>MOLECULE
*****
 27 30 0 0 0
SMALL
GASTEIGER

@<TRIPOS>ATOM
      1 C          59.3371   89.2604    7.0575 C.3     1  UNL1        0.0534
      2 C          60.1001   88.6022    8.1686 C.ar    1  UNL1        0.0730
      3 N          60.8555   89.3057    9.2569 N.ar    1  UNL1       -0.2299
      4 C          61.4640   88.2631   10.1474 C.ar    1  UNL1        0.1604
      5 C          62.3144   88.3670   11.3786 C.ar    1  UNL1        0.0813
      6 C          62.7855   87.1231   12.0719 C.ar    1  UNL1        0.0365
      7 C          62.4062   85.7753   11.5339 C.ar    1  UNL1        0.0857
      8 C          61.5557   85.6714   10.3027 C.ar    1  UNL1        0.0989
      9 N          61.0846   86.9153    9.6094 N.ar    1  UNL1       -0.2906
     10 C          60.2417   87.1249    8.3865 C.ar    1  UNL1        0.0567
     11 C          59.6452   86.0464    7.5315 C.3     1  UNL1        0.0517
     12 N          62.8773   84.5313   12.2272 N.ar    1  UNL1       -0.2716
     13 C          62.5942   84.3332   13.6869 C.ar    1  UNL1        0.0830
     14 C          63.0653   83.0893   14.3801 C.ar    1  UNL1        0.0192
     15 C          63.8195   82.0433   13.6137 C.ar    1  UNL1        0.0064
     16 C          64.1025   82.2414   12.1541 C.ar    1  UNL1        0.0611
     17 C          63.6314   83.4854   11.4608 C.ar    1  UNL1        0.2649
     18 O          63.9144   83.6835   10.0011 O.2     1  UNL1       -0.2666
     19 N          62.6938   89.7149   11.9166 N.pl3   1  UNL1       -0.3267
     20 H          62.4048   90.5311   11.4480 H       1  UNL1        0.1472
     21 C          63.5134   89.8192   13.1686 C.3     1  UNL1        0.1144
     22 C          64.5609   90.8856   13.2925 C.ar    1  UNL1       -0.0026
     23 C          64.6928   91.9347   12.2285 C.ar    1  UNL1       -0.0026
     24 C          65.7404   93.0011   12.3525 C.ar    1  UNL1       -0.0003
     25 C          66.6560   93.0185   13.5404 C.ar    1  UNL1       -0.0000
     26 C          66.5241   91.9695   14.6044 C.ar    1  UNL1       -0.0003
     27 C          65.4766   90.9030   14.4805 C.ar    1  UNL1       -0.0026
@<TRIPOS>BOND
     1     1     2    1
     2     2     3   ar
     3     3     4   ar
     4     4     5   ar
     5     5    19    1
     6    19    21    1
     7    21    22    1
     8    22    23   ar
     9    23    24   ar
    10    24    25   ar
    11    25    26   ar
    12    26    27   ar
    13     5     6   ar
    14     6     7   ar
    15     7    12    1
    16    12    13   ar
    17    13    14   ar
    18    14    15   ar
    19    15    16   ar
    20    16    17   ar
    21    17    18    2
    22     7     8   ar
    23     8     9   ar
    24     9    10   ar
    25    10    11    1
    26    10     2   ar
    27     9     4   ar
    28    27    22   ar
    29    17    12   ar
    30    19    20    1
@<TRIPOS>MOLECULE
*****
 27 30 0 0 0
SMALL
GASTEIGER

@<TRIPOS>ATOM
      1 C          60.8868   86.9698    9.5618 C.3     1  UNL1        0.0534
      2 C          61.7470   87.4457   10.6947 C.ar    1  UNL1        0.0730
      3 N          62.2439   86.6091   11.8363 N.ar    1  UNL1       -0.2299
      4 C          63.0654   87.4883   12.7321 C.ar    1  UNL1        0.1604
      5 C          63.8050   87.2105   14.0072 C.ar    1  UNL1        0.0813
      6 C          64.5554   88.3126   14.6943 C.ar    1  UNL1        0.0365
      7 C          64.5662   89.6925   14.1064 C.ar    1  UNL1        0.0857
      8 C          63.8266   89.9703   12.8313 C.ar    1  UNL1        0.0989
      9 N          63.0762   88.8682   12.1441 N.ar    1  UNL1       -0.2906
     10 C          62.2614   88.8419   10.8850 C.ar    1  UNL1        0.0567
     11 C          62.0059   90.0072    9.9758 C.3     1  UNL1        0.0517
     12 N          65.3166   90.7947   14.7935 N.ar    1  UNL1       -0.2716
     13 C          66.6867   91.1787   14.3185 C.ar    1  UNL1        0.0830
     14 C          67.4371   92.2808   15.0056 C.ar    1  UNL1        0.0192
     15 C          66.8175   92.9990   16.1677 C.ar    1  UNL1        0.0064
     16 C          65.4475   92.6150   16.6427 C.ar    1  UNL1        0.0611
     17 C          64.6970   91.5128   15.9555 C.ar    1  UNL1        0.2649
     18 O          63.3270   91.1288   16.4305 O.2     1  UNL1       -0.2666
     19 N          63.7941   85.8305   14.5951 N.pl3   1  UNL1       -0.3267
     20 H          63.3562   85.6681   15.4617 H       1  UNL1        0.1472
     21 C          64.4506   84.6980   13.8626 C.3     1  UNL1        0.1144
     22 C          63.6772   83.4471   13.5676 C.ar    1  UNL1       -0.0026
     23 C          63.8552   82.7477   12.2526 C.ar    1  UNL1       -0.0026
     24 C          63.0818   81.4968   11.9577 C.ar    1  UNL1       -0.0003
     25 C          62.1303   80.9452   12.9777 C.ar    1  UNL1       -0.0000
     26 C          61.9522   81.6446   14.2926 C.ar    1  UNL1       -0.0003
     27 C          62.7257   82.8955   14.5876 C.ar    1  UNL1       -0.0026
@<TRIPOS>BOND
     1     1     2    1
     2     2     3   ar
     3     3     4   ar
     4     4     5   ar
     5     5    19    1
     6    19    21    1
     7    21    22    1
     8    22    23   ar
     9    23    24   ar
    10    24    25   ar
    11    25    26   ar
    12    26    27   ar
    13     5     6   ar
    14     6     7   ar
    15     7    12    1
    16    12    13   ar
    17    13    14   ar
    18    14    15   ar
    19    15    16   ar
    20    16    17   ar
    21    17    18    2
    22     7     8   ar
    23     8     9   ar
    24     9    10   ar
    25    10    11    1
    26    10     2   ar
    27     9     4   ar
    28    27    22   ar
    29    17    12   ar
    30    19    20    1
@<TRIPOS>MOLECULE
*****
 27 30 0 0 0
SMALL
GASTEIGER

@<TRIPOS>ATOM
      1 C          59.2999   89.3013    7.3076 C.3     1  UNL1        0.0534
      2 C          60.0877   88.5774    8.3589 C.ar    1  UNL1        0.0730
      3 N          60.7964   89.2087    9.5205 N.ar    1  UNL1       -0.2299
      4 C          61.4519   88.1165   10.3127 C.ar    1  UNL1        0.1604
      5 C          62.2859   88.1427   11.5592 C.ar    1  UNL1        0.0813
      6 C          62.8164   86.8627   12.1337 C.ar    1  UNL1        0.0365
      7 C          62.5129   85.5565   11.4617 C.ar    1  UNL1        0.0857
      8 C          61.6788   85.5302   10.2153 C.ar    1  UNL1        0.0989
      9 N          61.1483   86.8102    9.6408 N.ar    1  UNL1       -0.2906
     10 C          60.3052   87.0951    8.4333 C.ar    1  UNL1        0.0567
     11 C          59.7731   86.0764    7.4693 C.3     1  UNL1        0.0517
     12 N          63.0434   84.2763   12.0362 N.ar    1  UNL1       -0.2716
     13 C          63.8294   83.3354   11.1720 C.ar    1  UNL1        0.0830
     14 C          64.3599   82.0554   11.7464 C.ar    1  UNL1        0.0192
     15 C          64.1044   81.7162   13.1851 C.ar    1  UNL1        0.0064
     16 C          63.3184   82.6571   14.0493 C.ar    1  UNL1        0.0611
     17 C          62.7879   83.9372   13.4748 C.ar    1  UNL1        0.2649
     18 O          62.0019   84.8782   14.3391 O.2     1  UNL1       -0.2666
     19 N          62.5895   89.4490   12.2312 N.pl3   1  UNL1       -0.3267
     20 H          62.0936   90.2605   11.9765 H       1  UNL1        0.1472
     21 C          63.6485   89.5189   13.2912 C.3     1  UNL1        0.1144
     22 C          64.5857   90.6890   13.3390 C.ar    1  UNL1       -0.0026
     23 C          64.5878   91.6943   12.2256 C.ar    1  UNL1       -0.0026
     24 C          65.5250   92.8644   12.2734 C.ar    1  UNL1       -0.0003
     25 C          66.4602   93.0294   13.4346 C.ar    1  UNL1       -0.0000
     26 C          66.4581   92.0242   14.5479 C.ar    1  UNL1       -0.0003
     27 C          65.5209   90.8540   14.5001 C.ar    1  UNL1       -0.0026
@<TRIPOS>BOND
     1     1     2    1
     2     2     3   ar
     3     3     4   ar
     4     4     5   ar
     5     5    19    1
     6    19    21    1
     7    21    22    1
     8    22    23   ar
     9    23    24   ar
    10    24    25   ar
    11    25    26   ar
    12    26    27   ar
    13     5     6   ar
    14     6     7   ar
    15     7    12    1
    16    12    13   ar
    17    13    14   ar
    18    14    15   ar
    19    15    16   ar
    20    16    17   ar
    21    17    18    2
    22     7     8   ar
    23     8     9   ar
    24     9    10   ar
    25    10    11    1
    26    10     2   ar
    27     9     4   ar
    28    27    22   ar
    29    17    12   ar
    30    19    20    1
@<TRIPOS>MOLECULE
*****
 27 30 0 0 0
SMALL
GASTEIGER

@<TRIPOS>ATOM
      1 C          66.4102   94.4904   11.3501 C.3     1  UNL1        0.0534
      2 C          65.7290   93.2655   11.8847 C.ar    1  UNL1        0.0730
      3 N          64.7512   92.4049   11.1409 N.ar    1  UNL1       -0.2299
      4 C          64.3240   91.2937   12.0535 C.ar    1  UNL1        0.1604
      5 C          63.3773   90.1460   11.8625 C.ar    1  UNL1        0.0813
      6 C          63.1443   89.1721   12.9793 C.ar    1  UNL1        0.0365
      7 C          63.8581   89.3460   14.2871 C.ar    1  UNL1        0.0857
      8 C          64.8048   90.4937   14.4780 C.ar    1  UNL1        0.0989
      9 N          65.0378   91.4675   13.3612 N.ar    1  UNL1       -0.2906
     10 C          65.9061   92.6862   13.2569 C.ar    1  UNL1        0.0567
     11 C          66.7954   93.2300   14.3355 C.3     1  UNL1        0.0517
     12 N          63.6251   88.3721   15.4040 N.ar    1  UNL1       -0.2716
     13 C          63.0854   88.8533   16.7182 C.ar    1  UNL1        0.0830
     14 C          62.8525   87.8795   17.8351 C.ar    1  UNL1        0.0192
     15 C          63.1592   86.4245   17.6377 C.ar    1  UNL1        0.0064
     16 C          63.6988   85.9433   16.3235 C.ar    1  UNL1        0.0611
     17 C          63.9318   86.9172   15.2066 C.ar    1  UNL1        0.2649
     18 O          64.4714   86.4360   13.8923 O.2     1  UNL1       -0.2666
     19 N          62.6635   89.9722   10.5547 N.pl3   1  UNL1       -0.3267
     20 H          62.8760   90.5621    9.7957 H       1  UNL1        0.1472
     21 C          61.6259   88.8995   10.4033 C.3     1  UNL1        0.1144
     22 C          62.0451   87.4704   10.2249 C.ar    1  UNL1       -0.0026
     23 C          62.0943   86.5499   11.4083 C.ar    1  UNL1       -0.0026
     24 C          62.5134   85.1208   11.2299 C.ar    1  UNL1       -0.0003
     25 C          62.8834   84.6121    9.8682 C.ar    1  UNL1       -0.0000
     26 C          62.8343   85.5325    8.6848 C.ar    1  UNL1       -0.0003
     27 C          62.4151   86.9617    8.8632 C.ar    1  UNL1       -0.0026
@<TRIPOS>BOND
     1     1     2    1
     2     2     3   ar
     3     3     4   ar
     4     4     5   ar
     5     5    19    1
     6    19    21    1
     7    21    22    1
     8    22    23   ar
     9    23    24   ar
    10    24    25   ar
    11    25    26   ar
    12    26    27   ar
    13     5     6   ar
    14     6     7   ar
    15     7    12    1
    16    12    13   ar
    17    13    14   ar
    18    14    15   ar
    19    15    16   ar
    20    16    17   ar
    21    17    18    2
    22     7     8   ar
    23     8     9   ar
    24     9    10   ar
    25    10    11    1
    26    10     2   ar
    27     9     4   ar
    28    27    22   ar
    29    17    12   ar
    30    19    20    1
@<TRIPOS>MOLECULE
*****
 27 30 0 0 0
SMALL
GASTEIGER

@<TRIPOS>ATOM
      1 C          64.3576   82.9956   14.9312 C.3     1  UNL1        0.0534
      2 C          63.8050   84.0604   14.0308 C.ar    1  UNL1        0.0730
      3 N          64.0587   85.5341   14.1489 N.ar    1  UNL1       -0.2299
      4 C          63.3120   86.2229   13.0452 C.ar    1  UNL1        0.1604
      5 C          63.1910   87.6690   12.6655 C.ar    1  UNL1        0.0813
      6 C          62.3549   88.0672   11.4856 C.ar    1  UNL1        0.0365
      7 C          61.6398   87.0192   10.6853 C.ar    1  UNL1        0.0857
      8 C          61.7609   85.5731   11.0649 C.ar    1  UNL1        0.0989
      9 N          62.5970   85.1750   12.2449 N.ar    1  UNL1       -0.2906
     10 C          62.9016   83.8385   12.8540 C.ar    1  UNL1        0.0567
     11 C          62.3923   82.5128   12.3711 C.3     1  UNL1        0.0517
     12 N          60.8037   87.4174    9.5053 N.ar    1  UNL1       -0.2716
     13 C          60.1499   86.3647    8.6600 C.ar    1  UNL1        0.0830
     14 C          59.3137   86.7628    7.4800 C.ar    1  UNL1        0.0192
     15 C          59.1314   88.2136    7.1453 C.ar    1  UNL1        0.0064
     16 C          59.7852   89.2663    7.9905 C.ar    1  UNL1        0.0611
     17 C          60.6213   88.8681    9.1706 C.ar    1  UNL1        0.2649
     18 O          61.2751   89.9208   10.0158 O.2     1  UNL1       -0.2666
     19 N          63.9061   88.7169   13.4659 N.pl3   1  UNL1       -0.3267
     20 H          64.6549   88.4627   14.0523 H       1  UNL1        0.1472
     21 C          63.4803   90.1522   13.3727 C.3     1  UNL1        0.1144
     22 C          64.3980   91.1685   12.7605 C.ar    1  UNL1       -0.0026
     23 C          64.1803   91.6205   11.3468 C.ar    1  UNL1       -0.0026
     24 C          65.0980   92.6368   10.7346 C.ar    1  UNL1       -0.0003
     25 C          66.2334   93.2013   11.5361 C.ar    1  UNL1       -0.0000
     26 C          66.4511   92.7494   12.9497 C.ar    1  UNL1       -0.0003
     27 C          65.5333   91.7330   13.5620 C.ar    1  UNL1       -0.0026
@<TRIPOS>BOND
     1     1     2    1
     2     2     3   ar
     3     3     4   ar
     4     4     5   ar
     5     5    19    1
     6    19    21    1
     7    21    22    1
     8    22    23   ar
     9    23    24   ar
    10    24    25   ar
    11    25    26   ar
    12    26    27   ar
    13     5     6   ar
    14     6     7   ar
    15     7    12    1
    16    12    13   ar
    17    13    14   ar
    18    14    15   ar
    19    15    16   ar
    20    16    17   ar
    21    17    18    2
    22     7     8   ar
    23     8     9   ar
    24     9    10   ar
    25    10    11    1
    26    10     2   ar
    27     9     4   ar
    28    27    22   ar
    29    17    12   ar
    30    19    20    1
@<TRIPOS>MOLECULE
*****
 27 30 0 0 0
SMALL
GASTEIGER

@<TRIPOS>ATOM
      1 C          59.3006   89.4183    7.2549 C.3     1  UNL1        0.0534
      2 C          60.1003   88.6607    8.2731 C.ar    1  UNL1        0.0730
      3 N          60.9266   89.2625    9.3708 N.ar    1  UNL1       -0.2299
      4 C          61.5510   88.1419   10.1484 C.ar    1  UNL1        0.1604
      5 C          62.4637   88.1329   11.3388 C.ar    1  UNL1        0.0813
      6 C          62.9360   86.8297   11.9119 C.ar    1  UNL1        0.0365
      7 C          62.4956   85.5355   11.2947 C.ar    1  UNL1        0.0857
      8 C          61.5828   85.5445   10.1044 C.ar    1  UNL1        0.0989
      9 N          61.1106   86.8477    9.5313 N.ar    1  UNL1       -0.2906
     10 C          60.2140   87.1683    8.3722 C.ar    1  UNL1        0.0567
     11 C          59.5480   86.1715    7.4707 C.3     1  UNL1        0.0517
     12 N          62.9678   84.2322   11.8679 N.ar    1  UNL1       -0.2716
     13 C          63.6998   83.2523   10.9994 C.ar    1  UNL1        0.0830
     14 C          64.1721   81.9491   11.5725 C.ar    1  UNL1        0.0192
     15 C          63.9124   81.6256   13.0141 C.ar    1  UNL1        0.0064
     16 C          63.1805   82.6055   13.8825 C.ar    1  UNL1        0.0611
     17 C          62.7082   83.9088   13.3094 C.ar    1  UNL1        0.2649
     18 O          61.9762   84.8886   14.1778 O.2     1  UNL1       -0.2666
     19 N          62.9041   89.4272   11.9560 N.pl3   1  UNL1       -0.3267
     20 H          62.4680   90.2705   11.6952 H       1  UNL1        0.1472
     21 C          64.0090   89.4367   12.9704 C.3     1  UNL1        0.1144
     22 C          63.7498   88.9528   14.3663 C.ar    1  UNL1       -0.0026
     23 C          63.1605   89.8827   15.3852 C.ar    1  UNL1       -0.0026
     24 C          62.9013   89.3988   16.7811 C.ar    1  UNL1       -0.0003
     25 C          63.2312   87.9850   17.1582 C.ar    1  UNL1       -0.0000
     26 C          63.8204   87.0551   16.1393 C.ar    1  UNL1       -0.0003
     27 C          64.0797   87.5390   14.7434 C.ar    1  UNL1       -0.0026
@<TRIPOS>BOND
     1     1     2    1
     2     2     3   ar
     3     3     4   ar
     4     4     5   ar
     5     5    19    1
     6    19    21    1
     7    21    22    1
     8    22    23   ar
     9    23    24   ar
    10    24    25   ar
    11    25    26   ar
    12    26    27   ar
    13     5     6   ar
    14     6     7   ar
    15     7    12    1
    16    12    13   ar
    17    13    14   ar
    18    14    15   ar
    19    15    16   ar
    20    16    17   ar
    21    17    18    2
    22     7     8   ar
    23     8     9   ar
    24     9    10   ar
    25    10    11    1
    26    10     2   ar
    27     9     4   ar
    28    27    22   ar
    29    17    12   ar
    30    19    20    1
@<TRIPOS>MOLECULE
*****
 27 30 0 0 0
SMALL
GASTEIGER

@<TRIPOS>ATOM
      1 C          66.7809   95.4209   11.6455 C.3     1  UNL1        0.0534
      2 C          66.1084   94.1308   12.0110 C.ar    1  UNL1        0.0730
      3 N          65.2117   93.3212   11.1219 N.ar    1  UNL1       -0.2299
      4 C          64.7636   92.1139   11.8913 C.ar    1  UNL1        0.1604
      5 C          63.8713   90.9650   11.5256 C.ar    1  UNL1        0.0813
      6 C          63.5988   89.8795   12.5243 C.ar    1  UNL1        0.0365
      7 C          64.2186   89.9431   13.8888 C.ar    1  UNL1        0.0857
      8 C          65.1109   91.0920   14.2545 C.ar    1  UNL1        0.0989
      9 N          65.3834   92.1774   13.2557 N.ar    1  UNL1       -0.2906
     10 C          66.2145   93.4239   13.3297 C.ar    1  UNL1        0.0567
     11 C          67.0118   93.8830   14.5145 C.3     1  UNL1        0.0517
     12 N          63.9461   88.8576   14.8876 N.ar    1  UNL1       -0.2716
     13 C          64.2843   87.4337   14.5588 C.ar    1  UNL1        0.0830
     14 C          64.0118   86.3483   15.5575 C.ar    1  UNL1        0.0192
     15 C          63.4012   86.6867   16.8852 C.ar    1  UNL1        0.0064
     16 C          63.0631   88.1106   17.2141 C.ar    1  UNL1        0.0611
     17 C          63.3356   89.1961   16.2152 C.ar    1  UNL1        0.2649
     18 O          62.9975   90.6200   16.5441 O.2     1  UNL1       -0.2666
     19 N          63.2515   90.9015   10.1610 N.pl3   1  UNL1       -0.3267
     20 H          63.4855   91.5751    9.4823 H       1  UNL1        0.1472
     21 C          62.2753   89.8116    9.8307 C.3     1  UNL1        0.1144
     22 C          61.0146   89.6662   10.6303 C.ar    1  UNL1       -0.0026
     23 C          60.1982   90.8778   10.9704 C.ar    1  UNL1       -0.0026
     24 C          58.9375   90.7324   11.7700 C.ar    1  UNL1       -0.0003
     25 C          58.4931   89.3755   12.2296 C.ar    1  UNL1       -0.0000
     26 C          59.3095   88.1639   11.8897 C.ar    1  UNL1       -0.0003
     27 C          60.5703   88.3093   11.0900 C.ar    1  UNL1       -0.0026
@<TRIPOS>BOND
     1     1     2    1
     2     2     3   ar
     3     3     4   ar
     4     4     5   ar
     5     5    19    1
     6    19    21    1
     7    21    22    1
     8    22    23   ar
     9    23    24   ar
    10    24    25   ar
    11    25    26   ar
    12    26    27   ar
    13     5     6   ar
    14     6     7   ar
    15     7    12    1
    16    12    13   ar
    17    13    14   ar
    18    14    15   ar
    19    15    16   ar
    20    16    17   ar
    21    17    18    2
    22     7     8   ar
    23     8     9   ar
    24     9    10   ar
    25    10    11    1
    26    10     2   ar
    27     9     4   ar
    28    27    22   ar
    29    17    12   ar
    30    19    20    1
