@<TRIPOS>MOLECULE
*****
 33 37 0 0 0
SMALL
GASTEIGER

@<TRIPOS>ATOM
      1 C          59.6415   87.4408    7.8512 C.3     1  UNL1        0.2093
      2 C          60.0487   85.9976    7.8879 C.3     1  UNL1        0.0946
      3 C          61.4196   85.5933    7.4330 C.3     1  UNL1        0.2093
      4 O          62.6110   85.8755    8.2997 O.3     1  UNL1       -0.4753
      5 C          63.1848   83.1864   13.6048 C.3     1  UNL1        0.0279
      6 C          64.0473   82.0314   13.1901 C.3     1  UNL1        0.0094
      7 C          64.3050   82.1507   11.7172 C.3     1  UNL1        0.0265
      8 C          63.6017   83.3794   11.2216 C.ar    1  UNL1       -0.0231
      9 C          63.5022   83.9980    9.8588 C.ar    1  UNL1        0.0323
     10 C          62.7104   85.2568    9.6625 C.ar    1  UNL1        0.1382
     11 C          62.0181   85.8969   10.8291 C.ar    1  UNL1        0.0366
     12 C          62.1175   85.2783   12.1920 C.ar    1  UNL1       -0.0015
     13 C          62.9093   84.0195   12.3882 C.ar    1  UNL1       -0.0259
     14 C          62.6853   83.4602   14.9924 C.3     1  UNL1        0.0460
     15 O          64.3421   85.4227   15.3848 O.co2   1  UNL1       -0.5492
     16 C          63.0323   84.7510   15.6733 C.2     1  UNL1        0.0507
     17 O          62.0695   85.3701   16.6428 O.co2   1  UNL1       -0.5492
     18 O          59.2655   88.1465    9.1204 O.3     1  UNL1       -0.4753
     19 C          60.3215   88.8224    9.9439 C.ar    1  UNL1        0.1386
     20 C          60.0690   89.1156   11.3932 C.ar    1  UNL1        0.0370
     21 C          61.1250   89.7915   12.2166 C.ar    1  UNL1        0.0051
     22 C          62.4334   90.1742   11.5908 C.ar    1  UNL1        0.0240
     23 C          62.6858   89.8810   10.1416 C.ar    1  UNL1        0.0051
     24 C          61.6298   89.2051    9.3181 C.ar    1  UNL1        0.0370
     25 C          63.4894   90.8501   12.4142 C.ar    1  UNL1        0.1100
     26 N          64.5054   91.8323   11.9112 N.ar    1  UNL1       -0.2430
     27 C          65.3587   92.2517   13.0714 C.ar    1  UNL1        0.0615
     28 C          64.8700   91.5288   14.2914 C.ar    1  UNL1        0.0222
     29 S          63.7147   90.6625   13.8854 S.2     1  UNL1       -0.0712
     30 C          65.5402   91.7527   15.6146 C.3     1  UNL1        0.0342
     31 C          66.6990   92.6995   15.7176 C.3     1  UNL1        0.0057
     32 C          67.1877   93.4224   14.4976 C.3     1  UNL1        0.0067
     33 C          66.5175   93.1985   13.1744 C.3     1  UNL1        0.0460
@<TRIPOS>UNITY_ATOM_ATTR
15 1
charge -1
@<TRIPOS>BOND
     1    15    16   ar
     2    16    17   ar
     3    16    14    1
     4     5    14    1
     5     5     6    1
     6     6     7    1
     7     7     8    1
     8     8     9   ar
     9     9    10   ar
    10    10     4    1
    11     4     3    1
    12     3     2    1
    13     2     1    1
    14     1    18    1
    15    18    19    1
    16    19    20   ar
    17    20    21   ar
    18    21    22   ar
    19    22    25    1
    20    25    26   ar
    21    26    27   ar
    22    27    28   ar
    23    28    29   ar
    24    28    30    1
    25    30    31    1
    26    31    32    1
    27    32    33    1
    28    22    23   ar
    29    23    24   ar
    30    10    11   ar
    31    11    12   ar
    32    12    13   ar
    33    13     5    1
    34    13     8   ar
    35    24    19   ar
    36    29    25   ar
    37    33    27    1
@<TRIPOS>MOLECULE
*****
 33 37 0 0 0
SMALL
GASTEIGER

@<TRIPOS>ATOM
      1 C          60.1123   88.8439    8.2238 C.3     1  UNL1        0.2093
      2 C          59.4025   87.5794    7.8399 C.3     1  UNL1        0.0946
      3 C          60.1546   86.2826    7.7904 C.3     1  UNL1        0.2093
      4 O          61.6200   86.2528    8.1094 O.3     1  UNL1       -0.4753
      5 C          63.6949   83.5471   13.0164 C.3     1  UNL1        0.0279
      6 C          64.5856   82.5311   12.3651 C.3     1  UNL1        0.0094
      7 C          64.4934   82.7182   10.8797 C.3     1  UNL1        0.0265
      8 C          63.5456   83.8499   10.6130 C.ar    1  UNL1       -0.0231
      9 C          63.0683   84.4801    9.3383 C.ar    1  UNL1        0.0323
     10 C          62.0974   85.6225    9.3842 C.ar    1  UNL1        0.1382
     11 C          61.6039   86.1348   10.7048 C.ar    1  UNL1        0.0366
     12 C          62.0812   85.5046   11.9795 C.ar    1  UNL1       -0.0015
     13 C          63.0521   84.3622   11.9336 C.ar    1  UNL1       -0.0259
     14 C          63.4839   83.7181   14.4917 C.3     1  UNL1        0.0460
     15 O          62.8984   85.6227   16.1589 O.co2   1  UNL1       -0.5492
     16 C          63.8331   85.0181   15.1536 C.2     1  UNL1        0.0507
     17 O          65.1171   85.7135   14.8101 O.co2   1  UNL1       -0.5492
     18 O          59.8452   89.4790    9.5563 O.3     1  UNL1       -0.4753
     19 C          60.9890   89.9415   10.4094 C.ar    1  UNL1        0.1386
     20 C          62.1411   90.6731    9.7867 C.ar    1  UNL1        0.0370
     21 C          63.2849   91.1356   10.6398 C.ar    1  UNL1        0.0051
     22 C          63.2766   90.8666   12.1156 C.ar    1  UNL1        0.0240
     23 C          62.1245   90.1351   12.7381 C.ar    1  UNL1        0.0051
     24 C          60.9807   89.6726   11.8850 C.ar    1  UNL1        0.0370
     25 C          64.4204   91.3291   12.9687 C.ar    1  UNL1        0.1100
     26 N          64.3721   91.5826   14.4463 N.ar    1  UNL1       -0.2430
     27 C          65.7352   92.0295   14.8848 C.ar    1  UNL1        0.0615
     28 C          66.6259   92.0523   13.6781 C.ar    1  UNL1        0.0222
     29 S          65.8134   91.6195   12.4938 S.2     1  UNL1       -0.0712
     30 C          68.0618   92.4643   13.8136 C.3     1  UNL1        0.0342
     31 C          68.6070   92.8534   15.1557 C.3     1  UNL1        0.0057
     32 C          67.7162   92.8307   16.3623 C.3     1  UNL1        0.0067
     33 C          66.2803   92.4187   16.2269 C.3     1  UNL1        0.0460
@<TRIPOS>UNITY_ATOM_ATTR
15 1
charge -1
@<TRIPOS>BOND
     1    15    16   ar
     2    16    17   ar
     3    16    14    1
     4     5    14    1
     5     5     6    1
     6     6     7    1
     7     7     8    1
     8     8     9   ar
     9     9    10   ar
    10    10     4    1
    11     4     3    1
    12     3     2    1
    13     2     1    1
    14     1    18    1
    15    18    19    1
    16    19    20   ar
    17    20    21   ar
    18    21    22   ar
    19    22    25    1
    20    25    26   ar
    21    26    27   ar
    22    27    28   ar
    23    28    29   ar
    24    28    30    1
    25    30    31    1
    26    31    32    1
    27    32    33    1
    28    22    23   ar
    29    23    24   ar
    30    10    11   ar
    31    11    12   ar
    32    12    13   ar
    33    13     5    1
    34    13     8   ar
    35    24    19   ar
    36    29    25   ar
    37    33    27    1
@<TRIPOS>MOLECULE
*****
 33 37 0 0 0
SMALL
GASTEIGER

@<TRIPOS>ATOM
      1 C          64.2568   87.1416   15.5493 C.3     1  UNL1        0.2093
      2 C          63.5035   85.8584   15.7393 C.3     1  UNL1        0.0946
      3 C          64.1547   84.5496   15.4032 C.3     1  UNL1        0.2093
      4 O          63.5003   83.6144   14.4300 O.3     1  UNL1       -0.4753
      5 C          62.5398   85.5667    8.8648 C.3     1  UNL1        0.0279
      6 C          61.8841   86.8770    9.1859 C.3     1  UNL1        0.0094
      7 C          61.8150   87.0072   10.6786 C.3     1  UNL1        0.0265
      8 C          62.4280   85.7774   11.2801 C.ar    1  UNL1       -0.0231
      9 C          62.6361   85.3532   12.7037 C.ar    1  UNL1        0.0323
     10 C          63.2922   84.0387   13.0063 C.ar    1  UNL1        0.1382
     11 C          63.7402   83.1484   11.8853 C.ar    1  UNL1        0.0366
     12 C          63.5321   83.5726   10.4617 C.ar    1  UNL1       -0.0015
     13 C          62.8760   84.8871   10.1591 C.ar    1  UNL1       -0.0259
     14 C          62.8117   85.0302    7.4907 C.3     1  UNL1        0.0460
     15 O          60.2800   85.1722    6.9244 O.co2   1  UNL1       -0.5492
     16 C          61.6729   84.7576    6.5531 C.2     1  UNL1        0.0507
     17 O          61.9272   84.0705    5.2441 O.co2   1  UNL1       -0.5492
     18 O          63.5113   88.4368   15.4201 O.3     1  UNL1       -0.4753
     19 C          64.0456   89.5248   14.5364 C.ar    1  UNL1        0.1386
     20 C          65.2758   90.2825   14.9400 C.ar    1  UNL1        0.0370
     21 C          65.8101   91.3704   14.0564 C.ar    1  UNL1        0.0051
     22 C          65.1143   91.7007   12.7692 C.ar    1  UNL1        0.0240
     23 C          63.8842   90.9431   12.3657 C.ar    1  UNL1        0.0051
     24 C          63.3499   89.8551   13.2493 C.ar    1  UNL1        0.0370
     25 C          65.6486   92.7887   11.8855 C.ar    1  UNL1        0.1100
     26 N          65.7100   94.2488   12.2236 N.ar    1  UNL1       -0.2430
     27 C          66.3147   94.9701   11.0557 C.ar    1  UNL1        0.0615
     28 C          66.6271   93.9558    9.9957 C.ar    1  UNL1        0.0222
     29 S          66.2154   92.6076   10.5085 S.2     1  UNL1       -0.0712
     30 C          67.2460   94.3908    8.7005 C.3     1  UNL1        0.0342
     31 C          67.5525   95.8401    8.4653 C.3     1  UNL1        0.0057
     32 C          67.2402   96.8545    9.5252 C.3     1  UNL1        0.0067
     33 C          66.6212   96.4194   10.8205 C.3     1  UNL1        0.0460
@<TRIPOS>UNITY_ATOM_ATTR
15 1
charge -1
@<TRIPOS>BOND
     1    15    16   ar
     2    16    17   ar
     3    16    14    1
     4     5    14    1
     5     5     6    1
     6     6     7    1
     7     7     8    1
     8     8     9   ar
     9     9    10   ar
    10    10     4    1
    11     4     3    1
    12     3     2    1
    13     2     1    1
    14     1    18    1
    15    18    19    1
    16    19    20   ar
    17    20    21   ar
    18    21    22   ar
    19    22    25    1
    20    25    26   ar
    21    26    27   ar
    22    27    28   ar
    23    28    29   ar
    24    28    30    1
    25    30    31    1
    26    31    32    1
    27    32    33    1
    28    22    23   ar
    29    23    24   ar
    30    10    11   ar
    31    11    12   ar
    32    12    13   ar
    33    13     5    1
    34    13     8   ar
    35    24    19   ar
    36    29    25   ar
    37    33    27    1
@<TRIPOS>MOLECULE
*****
 33 37 0 0 0
SMALL
GASTEIGER

@<TRIPOS>ATOM
      1 C          63.1006   84.6995   16.9109 C.3     1  UNL1        0.2093
      2 C          62.4399   84.0897   15.7102 C.3     1  UNL1        0.0946
      3 C          63.0995   82.9525   14.9879 C.3     1  UNL1        0.2093
      4 O          64.1713   83.2281   13.9753 O.3     1  UNL1       -0.4753
      5 C          62.5355   85.3635    8.6397 C.3     1  UNL1        0.0279
      6 C          61.7166   86.5342    9.0967 C.3     1  UNL1        0.0094
      7 C          61.7357   86.5559   10.5964 C.3     1  UNL1        0.0265
      8 C          62.5664   85.3987   11.0663 C.ar    1  UNL1       -0.0231
      9 C          62.9366   84.9209   12.4391 C.ar    1  UNL1        0.0323
     10 C          63.8011   83.7060   12.6025 C.ar    1  UNL1        0.1382
     11 C          64.2954   82.9690   11.3931 C.ar    1  UNL1        0.0366
     12 C          63.9252   83.4469   10.0204 C.ar    1  UNL1       -0.0015
     13 C          63.0607   84.6617    9.8569 C.ar    1  UNL1       -0.0259
     14 C          62.7853   84.9645    7.2155 C.3     1  UNL1        0.0460
     15 O          61.8768   84.1752    4.9129 O.co2   1  UNL1       -0.5492
     16 C          61.6294   84.6921    6.2991 C.2     1  UNL1        0.0507
     17 O          60.2260   84.9367    6.7689 O.co2   1  UNL1       -0.5492
     18 O          62.7794   86.1099   17.3083 O.3     1  UNL1       -0.4753
     19 C          63.2424   87.2534   16.4551 C.ar    1  UNL1        0.1386
     20 C          62.9791   88.6657   16.8866 C.ar    1  UNL1        0.0370
     21 C          63.4422   89.8093   16.0334 C.ar    1  UNL1        0.0051
     22 C          64.1685   89.5405   14.7488 C.ar    1  UNL1        0.0240
     23 C          64.4318   88.1282   14.3174 C.ar    1  UNL1        0.0051
     24 C          63.9688   86.9847   15.1705 C.ar    1  UNL1        0.0370
     25 C          64.6316   90.6840   13.8956 C.ar    1  UNL1        0.1100
     26 N          64.3453   90.8664   12.4345 N.ar    1  UNL1       -0.2430
     27 C          64.9990   92.1410   11.9896 C.ar    1  UNL1        0.0615
     28 C          65.6893   92.7465   13.1757 C.ar    1  UNL1        0.0222
     29 S          65.4622   91.8460   14.3538 S.2     1  UNL1       -0.0712
     30 C          66.4354   94.0395   13.0300 C.3     1  UNL1        0.0342
     31 C          66.4913   94.7271   11.6981 C.3     1  UNL1        0.0057
     32 C          65.8010   94.1216   10.5119 C.3     1  UNL1        0.0067
     33 C          65.0549   92.8286   10.6577 C.3     1  UNL1        0.0460
@<TRIPOS>UNITY_ATOM_ATTR
15 1
charge -1
@<TRIPOS>BOND
     1    15    16   ar
     2    16    17   ar
     3    16    14    1
     4     5    14    1
     5     5     6    1
     6     6     7    1
     7     7     8    1
     8     8     9   ar
     9     9    10   ar
    10    10     4    1
    11     4     3    1
    12     3     2    1
    13     2     1    1
    14     1    18    1
    15    18    19    1
    16    19    20   ar
    17    20    21   ar
    18    21    22   ar
    19    22    25    1
    20    25    26   ar
    21    26    27   ar
    22    27    28   ar
    23    28    29   ar
    24    28    30    1
    25    30    31    1
    26    31    32    1
    27    32    33    1
    28    22    23   ar
    29    23    24   ar
    30    10    11   ar
    31    11    12   ar
    32    12    13   ar
    33    13     5    1
    34    13     8   ar
    35    24    19   ar
    36    29    25   ar
    37    33    27    1
@<TRIPOS>MOLECULE
*****
 33 37 0 0 0
SMALL
GASTEIGER

@<TRIPOS>ATOM
      1 C          62.6976   84.4484   16.3363 C.3     1  UNL1        0.2093
      2 C          63.8138   83.7185   15.6498 C.3     1  UNL1        0.0946
      3 C          63.5105   82.7630   14.5340 C.3     1  UNL1        0.2093
      4 O          64.1327   82.9645   13.1840 O.3     1  UNL1       -0.4753
      5 C          61.6220   86.3414    8.9416 C.3     1  UNL1        0.0279
      6 C          62.2465   85.7051    7.7353 C.3     1  UNL1        0.0094
      7 C          63.1403   84.5965    8.2065 C.3     1  UNL1        0.0265
      8 C          63.0683   84.5476    9.7040 C.ar    1  UNL1       -0.0231
      9 C          63.7359   83.6605   10.7125 C.ar    1  UNL1        0.0323
     10 C          63.4651   83.8517   12.1754 C.ar    1  UNL1        0.1382
     11 C          62.5267   84.9301   12.6297 C.ar    1  UNL1        0.0366
     12 C          61.8591   85.8173   11.6212 C.ar    1  UNL1       -0.0015
     13 C          62.1299   85.6260   10.1583 C.ar    1  UNL1       -0.0259
     14 C          60.6587   87.4912    8.9328 C.3     1  UNL1        0.0460
     15 O          62.4231   89.0169   10.0771 O.co2   1  UNL1       -0.5492
     16 C          61.0125   88.7714    9.6300 C.2     1  UNL1        0.0507
     17 O          59.9557   89.8061    9.8800 O.co2   1  UNL1       -0.5492
     18 O          62.9708   85.7435   17.0422 O.3     1  UNL1       -0.4753
     19 C          63.3958   86.9498   16.2584 C.ar    1  UNL1        0.1386
     20 C          63.0619   88.3243   16.7576 C.ar    1  UNL1        0.0370
     21 C          63.4869   89.5306   15.9738 C.ar    1  UNL1        0.0051
     22 C          64.2457   89.3623   14.6908 C.ar    1  UNL1        0.0240
     23 C          64.5796   87.9877   14.1918 C.ar    1  UNL1        0.0051
     24 C          64.1546   86.7815   14.9755 C.ar    1  UNL1        0.0370
     25 C          64.6707   90.5685   13.9071 C.ar    1  UNL1        0.1100
     26 N          64.3081   90.8670   12.4825 N.ar    1  UNL1       -0.2430
     27 C          64.9462   92.1711   12.1052 C.ar    1  UNL1        0.0615
     28 C          65.7031   92.6786   13.2966 C.ar    1  UNL1        0.0222
     29 S          65.5329   91.6882   14.4103 S.2     1  UNL1       -0.0712
     30 C          66.4496   93.9770   13.2136 C.3     1  UNL1        0.0342
     31 C          66.4391   94.7678   11.9391 C.3     1  UNL1        0.0057
     32 C          65.6822   94.2603   10.7477 C.3     1  UNL1        0.0067
     33 C          64.9358   92.9620   10.8307 C.3     1  UNL1        0.0460
@<TRIPOS>UNITY_ATOM_ATTR
15 1
charge -1
@<TRIPOS>BOND
     1    15    16   ar
     2    16    17   ar
     3    16    14    1
     4     5    14    1
     5     5     6    1
     6     6     7    1
     7     7     8    1
     8     8     9   ar
     9     9    10   ar
    10    10     4    1
    11     4     3    1
    12     3     2    1
    13     2     1    1
    14     1    18    1
    15    18    19    1
    16    19    20   ar
    17    20    21   ar
    18    21    22   ar
    19    22    25    1
    20    25    26   ar
    21    26    27   ar
    22    27    28   ar
    23    28    29   ar
    24    28    30    1
    25    30    31    1
    26    31    32    1
    27    32    33    1
    28    22    23   ar
    29    23    24   ar
    30    10    11   ar
    31    11    12   ar
    32    12    13   ar
    33    13     5    1
    34    13     8   ar
    35    24    19   ar
    36    29    25   ar
    37    33    27    1
@<TRIPOS>MOLECULE
*****
 33 37 0 0 0
SMALL
GASTEIGER

@<TRIPOS>ATOM
      1 C          59.5867   90.1226    5.9350 C.3     1  UNL1        0.2093
      2 C          58.7128   91.0781    5.1778 C.3     1  UNL1        0.0946
      3 C          59.3067   92.3091    4.5599 C.3     1  UNL1        0.2093
      4 O          58.9881   92.6626    3.1374 O.3     1  UNL1       -0.4753
      5 C          63.6103   93.7374   -0.4937 C.3     1  UNL1        0.0279
      6 C          64.7292   93.3761    0.4378 C.3     1  UNL1        0.0094
      7 C          64.1260   92.9504    1.7435 C.3     1  UNL1        0.0265
      8 C          62.6344   93.0485    1.6190 C.ar    1  UNL1       -0.0231
      9 C          61.5253   92.7577    2.5860 C.ar    1  UNL1        0.0323
     10 C          60.0974   92.9534    2.1704 C.ar    1  UNL1        0.1382
     11 C          59.7787   93.4398    0.7877 C.ar    1  UNL1        0.0366
     12 C          60.8878   93.7305   -0.1793 C.ar    1  UNL1       -0.0015
     13 C          62.3157   93.5349    0.2363 C.ar    1  UNL1       -0.0259
     14 C          63.7598   94.2170   -1.9071 C.3     1  UNL1        0.0460
     15 O          61.8315   93.5219   -3.5035 O.co2   1  UNL1       -0.5492
     16 C          63.2513   93.3777   -3.0416 C.2     1  UNL1        0.0507
     17 O          64.1626   92.3942   -3.7142 O.co2   1  UNL1       -0.5492
     18 O          58.9687   89.0204    6.7433 O.3     1  UNL1       -0.4753
     19 C          59.7481   88.3743    7.8501 C.ar    1  UNL1        0.1386
     20 C          59.9034   86.8828    7.8866 C.ar    1  UNL1        0.0370
     21 C          60.6829   86.2368    8.9934 C.ar    1  UNL1        0.0051
     22 C          61.3070   87.0823   10.0638 C.ar    1  UNL1        0.0240
     23 C          61.1517   88.5737   10.0273 C.ar    1  UNL1        0.0051
     24 C          60.3723   89.2198    8.9205 C.ar    1  UNL1        0.0370
     25 C          62.0864   86.4362   11.1707 C.ar    1  UNL1        0.1100
     26 N          62.8326   87.1516   12.2576 N.ar    1  UNL1       -0.2430
     27 C          63.4639   86.1189   13.1436 C.ar    1  UNL1        0.0615
     28 C          63.1079   84.7652   12.6042 C.ar    1  UNL1        0.0222
     29 S          62.2566   84.9613   11.3848 S.2     1  UNL1       -0.0712
     30 C          63.6049   83.5290   13.2931 C.3     1  UNL1        0.0342
     31 C          64.4579   83.6463   14.5213 C.3     1  UNL1        0.0057
     32 C          64.8139   84.9999   15.0607 C.3     1  UNL1        0.0067
     33 C          64.3169   86.2362   14.3719 C.3     1  UNL1        0.0460
@<TRIPOS>UNITY_ATOM_ATTR
15 1
charge -1
@<TRIPOS>BOND
     1    15    16   ar
     2    16    17   ar
     3    16    14    1
     4     5    14    1
     5     5     6    1
     6     6     7    1
     7     7     8    1
     8     8     9   ar
     9     9    10   ar
    10    10     4    1
    11     4     3    1
    12     3     2    1
    13     2     1    1
    14     1    18    1
    15    18    19    1
    16    19    20   ar
    17    20    21   ar
    18    21    22   ar
    19    22    25    1
    20    25    26   ar
    21    26    27   ar
    22    27    28   ar
    23    28    29   ar
    24    28    30    1
    25    30    31    1
    26    31    32    1
    27    32    33    1
    28    22    23   ar
    29    23    24   ar
    30    10    11   ar
    31    11    12   ar
    32    12    13   ar
    33    13     5    1
    34    13     8   ar
    35    24    19   ar
    36    29    25   ar
    37    33    27    1
@<TRIPOS>MOLECULE
*****
 33 37 0 0 0
SMALL
GASTEIGER

@<TRIPOS>ATOM
      1 C          62.8044   80.2648   12.6659 C.3     1  UNL1        0.2093
      2 C          62.8231   81.1997   11.4931 C.3     1  UNL1        0.0946
      3 C          64.0608   81.9877   11.1818 C.3     1  UNL1        0.2093
      4 O          64.1342   82.8039    9.9254 O.3     1  UNL1       -0.4753
      5 C          60.8354   87.7817    9.7140 C.3     1  UNL1        0.0279
      6 C          60.5314   87.9237   11.1760 C.3     1  UNL1        0.0094
      7 C          61.1890   86.7858   11.8988 C.3     1  UNL1        0.0265
      8 C          61.8995   85.9404   10.8837 C.ar    1  UNL1       -0.0231
      9 C          62.7172   84.6898   11.0144 C.ar    1  UNL1        0.0323
     10 C          63.3164   84.0546    9.7947 C.ar    1  UNL1        0.1382
     11 C          63.0979   84.6702    8.4444 C.ar    1  UNL1        0.0366
     12 C          62.2802   85.9208    8.3137 C.ar    1  UNL1       -0.0015
     13 C          61.6810   86.5560    9.5333 C.ar    1  UNL1       -0.0259
     14 C          60.3748   88.7035    8.6240 C.3     1  UNL1        0.0460
     15 O          59.0941   89.0294    6.3871 O.co2   1  UNL1       -0.5492
     16 C          59.3379   88.2447    7.6420 C.2     1  UNL1        0.0507
     17 O          58.5447   87.0011    7.9149 O.co2   1  UNL1       -0.5492
     18 O          63.1900   80.7620   14.0277 O.3     1  UNL1       -0.4753
     19 C          63.3346   82.2343   14.2753 C.ar    1  UNL1        0.1386
     20 C          62.1175   83.0776   14.5153 C.ar    1  UNL1        0.0370
     21 C          62.2621   84.5499   14.7629 C.ar    1  UNL1        0.0051
     22 C          63.6238   85.1790   14.7705 C.ar    1  UNL1        0.0240
     23 C          64.8409   84.3357   14.5305 C.ar    1  UNL1        0.0051
     24 C          64.6963   82.8634   14.2829 C.ar    1  UNL1        0.0370
     25 C          63.7685   86.6513   15.0181 C.ar    1  UNL1        0.1100
     26 N          63.2235   87.4052   16.1948 N.ar    1  UNL1       -0.2430
     27 C          63.6016   88.8481   16.0364 C.ar    1  UNL1        0.0615
     28 C          64.3803   88.9860   14.7618 C.ar    1  UNL1        0.0222
     29 S          64.4835   87.6283   14.1324 S.2     1  UNL1       -0.0712
     30 C          64.8949   90.3300   14.3389 C.3     1  UNL1        0.0342
     31 C          64.6308   91.5361   15.1907 C.3     1  UNL1        0.0057
     32 C          63.8521   91.3982   16.4653 C.3     1  UNL1        0.0067
     33 C          63.3375   90.0542   16.8881 C.3     1  UNL1        0.0460
@<TRIPOS>UNITY_ATOM_ATTR
15 1
charge -1
@<TRIPOS>BOND
     1    15    16   ar
     2    16    17   ar
     3    16    14    1
     4     5    14    1
     5     5     6    1
     6     6     7    1
     7     7     8    1
     8     8     9   ar
     9     9    10   ar
    10    10     4    1
    11     4     3    1
    12     3     2    1
    13     2     1    1
    14     1    18    1
    15    18    19    1
    16    19    20   ar
    17    20    21   ar
    18    21    22   ar
    19    22    25    1
    20    25    26   ar
    21    26    27   ar
    22    27    28   ar
    23    28    29   ar
    24    28    30    1
    25    30    31    1
    26    31    32    1
    27    32    33    1
    28    22    23   ar
    29    23    24   ar
    30    10    11   ar
    31    11    12   ar
    32    12    13   ar
    33    13     5    1
    34    13     8   ar
    35    24    19   ar
    36    29    25   ar
    37    33    27    1
@<TRIPOS>MOLECULE
*****
 33 37 0 0 0
SMALL
GASTEIGER

@<TRIPOS>ATOM
      1 C          59.1981   90.2196    5.9357 C.3     1  UNL1        0.2093
      2 C          58.2151   91.2043    5.3751 C.3     1  UNL1        0.0946
      3 C          58.5551   91.9823    4.1386 C.3     1  UNL1        0.2093
      4 O          59.9111   92.6073    3.9949 O.3     1  UNL1       -0.4753
      5 C          61.9784   93.4546   -1.5470 C.3     1  UNL1        0.0279
      6 C          60.6727   93.6639   -2.2549 C.3     1  UNL1        0.0094
      7 C          59.5729   93.5553   -1.2406 C.3     1  UNL1        0.0265
      8 C          60.1990   93.2789    0.0941 C.ar    1  UNL1       -0.0231
      9 C          59.6075   93.0758    1.4575 C.ar    1  UNL1        0.0323
     10 C          60.5026   92.8104    2.6315 C.ar    1  UNL1        0.1382
     11 C          61.9893   92.7481    2.4421 C.ar    1  UNL1        0.0366
     12 C          62.5809   92.9512    1.0787 C.ar    1  UNL1       -0.0015
     13 C          61.6857   93.2166   -0.0952 C.ar    1  UNL1       -0.0259
     14 C          63.3382   93.4789   -2.1798 C.3     1  UNL1        0.0460
     15 O          64.5198   95.6333   -3.0240 O.co2   1  UNL1       -0.5492
     16 C          64.2595   94.6368   -1.9335 C.2     1  UNL1        0.0507
     17 O          64.9204   94.7982   -0.5966 O.co2   1  UNL1       -0.5492
     18 O          58.7090   89.0122    6.6793 O.3     1  UNL1       -0.4753
     19 C          59.5362   88.4264    7.7851 C.ar    1  UNL1        0.1386
     20 C          60.1652   89.3253    8.8081 C.ar    1  UNL1        0.0370
     21 C          60.9924   88.7396    9.9138 C.ar    1  UNL1        0.0051
     22 C          61.1905   87.2550    9.9966 C.ar    1  UNL1        0.0240
     23 C          60.5615   86.3562    8.9737 C.ar    1  UNL1        0.0051
     24 C          59.7343   86.9419    7.8679 C.ar    1  UNL1        0.0370
     25 C          62.0176   86.6692   11.1024 C.ar    1  UNL1        0.1100
     26 N          62.7300   87.4402   12.1739 N.ar    1  UNL1       -0.2430
     27 C          63.4303   86.4571   13.0646 C.ar    1  UNL1        0.0615
     28 C          63.1507   85.0786   12.5435 C.ar    1  UNL1        0.0222
     29 S          62.2777   85.2096   11.3308 S.2     1  UNL1       -0.0712
     30 C          63.7273   83.8821   13.2405 C.3     1  UNL1        0.0342
     31 C          64.5834   84.0641   14.4587 C.3     1  UNL1        0.0057
     32 C          64.8629   85.4426   14.9798 C.3     1  UNL1        0.0067
     33 C          64.2864   86.6391   14.2827 C.3     1  UNL1        0.0460
@<TRIPOS>UNITY_ATOM_ATTR
15 1
charge -1
@<TRIPOS>BOND
     1    15    16   ar
     2    16    17   ar
     3    16    14    1
     4     5    14    1
     5     5     6    1
     6     6     7    1
     7     7     8    1
     8     8     9   ar
     9     9    10   ar
    10    10     4    1
    11     4     3    1
    12     3     2    1
    13     2     1    1
    14     1    18    1
    15    18    19    1
    16    19    20   ar
    17    20    21   ar
    18    21    22   ar
    19    22    25    1
    20    25    26   ar
    21    26    27   ar
    22    27    28   ar
    23    28    29   ar
    24    28    30    1
    25    30    31    1
    26    31    32    1
    27    32    33    1
    28    22    23   ar
    29    23    24   ar
    30    10    11   ar
    31    11    12   ar
    32    12    13   ar
    33    13     5    1
    34    13     8   ar
    35    24    19   ar
    36    29    25   ar
    37    33    27    1
@<TRIPOS>MOLECULE
*****
 33 37 0 0 0
SMALL
GASTEIGER

@<TRIPOS>ATOM
      1 C          62.7196   80.3521   12.8753 C.3     1  UNL1        0.2093
      2 C          63.0558   81.1091   11.6247 C.3     1  UNL1        0.0946
      3 C          62.4079   82.4343   11.3531 C.3     1  UNL1        0.2093
      4 O          63.2096   83.5529   10.7564 O.3     1  UNL1       -0.4753
      5 C          60.5788   88.8020    9.6471 C.3     1  UNL1        0.0279
      6 C          59.9221   88.4639    8.3416 C.3     1  UNL1        0.0094
      7 C          60.2562   87.0397    8.0099 C.3     1  UNL1        0.0265
      8 C          61.1194   86.4977    9.1103 C.ar    1  UNL1       -0.0231
      9 C          61.7497   85.1530    9.3217 C.ar    1  UNL1        0.0323
     10 C          62.5793   84.8976   10.5450 C.ar    1  UNL1        0.1382
     11 C          62.7787   85.9868   11.5569 C.ar    1  UNL1        0.0366
     12 C          62.1485   87.3314   11.3455 C.ar    1  UNL1       -0.0015
     13 C          61.3188   87.5869   10.1222 C.ar    1  UNL1       -0.0259
     14 C          60.5080   90.1234   10.3535 C.3     1  UNL1        0.0460
     15 O          58.6138   91.4552   11.5320 O.co2   1  UNL1       -0.5492
     16 C          59.5755   90.3042   11.5146 C.2     1  UNL1        0.0507
     17 O          59.6047   89.3339   12.6581 O.co2   1  UNL1       -0.5492
     18 O          63.1878   80.8585   14.2074 O.3     1  UNL1       -0.4753
     19 C          63.3439   82.3327   14.4366 C.ar    1  UNL1        0.1386
     20 C          62.1995   83.1315   14.9865 C.ar    1  UNL1        0.0370
     21 C          62.3555   84.6056   15.2157 C.ar    1  UNL1        0.0051
     22 C          63.6560   85.2810   14.8950 C.ar    1  UNL1        0.0240
     23 C          64.8003   84.4822   14.3451 C.ar    1  UNL1        0.0051
     24 C          64.6442   83.0080   14.1159 C.ar    1  UNL1        0.0370
     25 C          63.8120   86.7551   15.1242 C.ar    1  UNL1        0.1100
     26 N          63.2096   87.5408   16.2510 N.ar    1  UNL1       -0.2430
     27 C          63.6231   88.9737   16.0901 C.ar    1  UNL1        0.0615
     28 C          64.4812   89.0735   14.8638 C.ar    1  UNL1        0.0222
     29 S          64.5980   87.7024   14.2668 S.2     1  UNL1       -0.0712
     30 C          65.0454   90.4001   14.4492 C.3     1  UNL1        0.0342
     31 C          64.7515   91.6268   15.2608 C.3     1  UNL1        0.0057
     32 C          63.8934   91.5269   16.4871 C.3     1  UNL1        0.0067
     33 C          63.3293   90.2004   16.9017 C.3     1  UNL1        0.0460
@<TRIPOS>UNITY_ATOM_ATTR
15 1
charge -1
@<TRIPOS>BOND
     1    15    16   ar
     2    16    17   ar
     3    16    14    1
     4     5    14    1
     5     5     6    1
     6     6     7    1
     7     7     8    1
     8     8     9   ar
     9     9    10   ar
    10    10     4    1
    11     4     3    1
    12     3     2    1
    13     2     1    1
    14     1    18    1
    15    18    19    1
    16    19    20   ar
    17    20    21   ar
    18    21    22   ar
    19    22    25    1
    20    25    26   ar
    21    26    27   ar
    22    27    28   ar
    23    28    29   ar
    24    28    30    1
    25    30    31    1
    26    31    32    1
    27    32    33    1
    28    22    23   ar
    29    23    24   ar
    30    10    11   ar
    31    11    12   ar
    32    12    13   ar
    33    13     5    1
    34    13     8   ar
    35    24    19   ar
    36    29    25   ar
    37    33    27    1
