@<TRIPOS>MOLECULE
*****
 29 32 0 0 0
SMALL
GASTEIGER

@<TRIPOS>ATOM
      1 C          65.6367   92.3796   12.7747 C.ar    1  UNL1        0.0579
      2 C          65.5368   91.5495   14.0200 C.ar    1  UNL1        0.0833
      3 N          64.4689   90.5183   13.8051 N.ar    1  UNL1       -0.3028
      4 C          63.9089   90.7111   12.4270 C.ar    1  UNL1        0.0917
      5 C          62.8350   89.9878   11.6697 C.ar    1  UNL1        0.1561
      6 F          62.1132   88.8373   12.3066 F       1  UNL1       -0.2026
      7 C          62.4829   90.4148   10.2756 C.ar    1  UNL1        0.0311
      8 C          63.2047   91.5652    9.6388 C.ar    1  UNL1        0.0024
      9 C          64.2786   92.2886   10.3960 C.ar    1  UNL1        0.0017
     10 C          64.6307   91.8615   11.7901 C.ar    1  UNL1        0.0229
     11 C          64.0368   89.4770   14.7946 C.ar    1  UNL1        0.0641
     12 C          64.3368   88.0296   14.5394 C.ar    1  UNL1        0.0176
     13 C          63.9047   86.9883   15.5289 C.ar    1  UNL1        0.0026
     14 C          63.1727   87.3944   16.7736 C.ar    1  UNL1        0.0141
     15 C          62.8727   88.8418   17.0287 C.ar    1  UNL1        0.0026
     16 C          63.3048   89.8830   16.0392 C.ar    1  UNL1        0.0176
     17 C          62.7406   86.3532   17.7631 C.2     1  UNL1        0.0729
     18 O          62.6400   86.6983   19.2193 O.co2   1  UNL1       -0.5446
     19 O          62.4092   84.9667   17.2962 O.co2   1  UNL1       -0.5446
     20 C          66.5776   93.5266   12.5528 C.2     1  UNL1        0.1976
     21 O          67.1659   94.2519   13.7265 O.2     1  UNL1       -0.2865
     22 C          68.1797   91.6996   10.7935 C.3     1  UNL1        0.0312
     23 C          67.7313   93.0347   10.2774 C.ar    1  UNL1       -0.0179
     24 C          68.0839   93.4563    8.8817 C.ar    1  UNL1       -0.0041
     25 C          67.6354   94.7914    8.3657 C.ar    1  UNL1        0.0005
     26 C          66.8343   95.7050    9.2454 C.ar    1  UNL1        0.0115
     27 C          66.4817   95.2834   10.6410 C.ar    1  UNL1        0.0604
     28 CL         65.6807   96.1969   11.5207 Cl      1  UNL1       -0.0822
     29 C          66.9302   93.9483   11.1570 C.ar    1  UNL1        0.0456
@<TRIPOS>UNITY_ATOM_ATTR
18 1
charge -1
@<TRIPOS>BOND
     1    22    23    1
     2    23    24   ar
     3    24    25   ar
     4    25    26   ar
     5    26    27   ar
     6    27    28    1
     7    27    29   ar
     8    29    20    1
     9    20    21    2
    10    20     1    1
    11     1     2   ar
    12     2     3   ar
    13     3    11    1
    14    11    12   ar
    15    12    13   ar
    16    13    14   ar
    17    14    17    1
    18    17    18   ar
    19    17    19   ar
    20    14    15   ar
    21    15    16   ar
    22     3     4   ar
    23     4     5   ar
    24     5     6    1
    25     5     7   ar
    26     7     8   ar
    27     8     9   ar
    28     9    10   ar
    29    29    23   ar
    30    10     1   ar
    31    16    11   ar
    32    10     4   ar
@<TRIPOS>MOLECULE
*****
 29 32 0 0 0
SMALL
GASTEIGER

@<TRIPOS>ATOM
      1 C          65.6229   92.3909   12.7636 C.ar    1  UNL1        0.0579
      2 C          65.5275   91.5650   14.0121 C.ar    1  UNL1        0.0833
      3 N          64.4633   90.5290   13.8023 N.ar    1  UNL1       -0.3028
      4 C          63.9009   90.7146   12.4242 C.ar    1  UNL1        0.0917
      5 C          62.8288   89.9844   11.6709 C.ar    1  UNL1        0.1561
      6 F          62.1121   88.8337   12.3129 F       1  UNL1       -0.2026
      7 C          62.4735   90.4050   10.2756 C.ar    1  UNL1        0.0311
      8 C          63.1902   91.5557    9.6337 C.ar    1  UNL1        0.0024
      9 C          64.2623   92.2859   10.3870 C.ar    1  UNL1        0.0017
     10 C          64.6176   91.8653   11.7822 C.ar    1  UNL1        0.0229
     11 C          64.0363   89.4898   14.7962 C.ar    1  UNL1        0.0641
     12 C          64.3332   88.0416   14.5415 C.ar    1  UNL1        0.0176
     13 C          63.9062   87.0024   15.5354 C.ar    1  UNL1        0.0026
     14 C          63.1824   87.4113   16.7839 C.ar    1  UNL1        0.0141
     15 C          62.8855   88.8594   17.0386 C.ar    1  UNL1        0.0026
     16 C          63.3125   89.8986   16.0447 C.ar    1  UNL1        0.0176
     17 C          62.7554   86.3721   17.7778 C.2     1  UNL1        0.0729
     18 O          62.4432   84.9786   17.3186 O.co2   1  UNL1       -0.5446
     19 O          62.6407   86.7264   19.2308 O.co2   1  UNL1       -0.5446
     20 C          66.5592   93.5405   12.5364 C.2     1  UNL1        0.1976
     21 O          67.1102   94.3015   13.7056 O.2     1  UNL1       -0.2865
     22 C          65.7091   96.1963   11.4299 C.3     1  UNL1        0.0312
     23 C          66.5195   95.2571   10.5865 C.ar    1  UNL1       -0.0179
     24 C          66.9047   95.6459    9.1899 C.ar    1  UNL1       -0.0041
     25 C          67.7151   94.7067    8.3466 C.ar    1  UNL1        0.0005
     26 C          68.1401   93.3788    8.8998 C.ar    1  UNL1        0.0115
     27 C          67.7549   92.9901   10.2964 C.ar    1  UNL1        0.0604
     28 CL         68.1800   91.6622   10.8496 Cl      1  UNL1       -0.0822
     29 C          66.9445   93.9292   11.1397 C.ar    1  UNL1        0.0456
@<TRIPOS>UNITY_ATOM_ATTR
18 1
charge -1
@<TRIPOS>BOND
     1    22    23    1
     2    23    24   ar
     3    24    25   ar
     4    25    26   ar
     5    26    27   ar
     6    27    28    1
     7    27    29   ar
     8    29    20    1
     9    20    21    2
    10    20     1    1
    11     1     2   ar
    12     2     3   ar
    13     3    11    1
    14    11    12   ar
    15    12    13   ar
    16    13    14   ar
    17    14    17    1
    18    17    18   ar
    19    17    19   ar
    20    14    15   ar
    21    15    16   ar
    22     3     4   ar
    23     4     5   ar
    24     5     6    1
    25     5     7   ar
    26     7     8   ar
    27     8     9   ar
    28     9    10   ar
    29    29    23   ar
    30    10     1   ar
    31    16    11   ar
    32    10     4   ar
@<TRIPOS>MOLECULE
*****
 29 32 0 0 0
SMALL
GASTEIGER

@<TRIPOS>ATOM
      1 C          63.5762   85.7321   12.9173 C.ar    1  UNL1        0.0579
      2 C          62.7509   85.7944   11.6664 C.ar    1  UNL1        0.0833
      3 N          62.4202   87.2331   11.4005 N.ar    1  UNL1       -0.3028
      4 C          63.0410   88.0600   12.4872 C.ar    1  UNL1        0.0917
      5 C          63.0481   89.5377   12.7442 C.ar    1  UNL1        0.1561
      6 F          62.3336   90.4655   11.8068 F       1  UNL1       -0.2026
      7 C          63.7696   90.0878   13.9387 C.ar    1  UNL1        0.0311
      8 C          64.4841   89.1600   14.8762 C.ar    1  UNL1        0.0024
      9 C          64.4771   87.6823   14.6192 C.ar    1  UNL1        0.0017
     10 C          63.7555   87.1322   13.4247 C.ar    1  UNL1        0.0229
     11 C          61.6107   87.7537   10.2500 C.ar    1  UNL1        0.0641
     12 C          61.0142   86.7981    9.2594 C.ar    1  UNL1        0.0176
     13 C          60.2047   87.3186    8.1089 C.ar    1  UNL1        0.0026
     14 C          59.9916   88.7947    7.9489 C.ar    1  UNL1        0.0141
     15 C          60.5880   89.7503    8.9394 C.ar    1  UNL1        0.0026
     16 C          61.3975   89.2297   10.0900 C.ar    1  UNL1        0.0176
     17 C          59.1821   89.3153    6.7984 C.2     1  UNL1        0.0729
     18 O          57.7065   89.0525    6.7399 O.co2   1  UNL1       -0.5446
     19 O          59.8483   90.0986    5.7064 O.co2   1  UNL1       -0.5446
     20 C          64.1258   84.4880   13.5500 C.2     1  UNL1        0.1976
     21 O          65.4360   84.5330   14.2787 O.2     1  UNL1       -0.2865
     22 C          64.5499   82.6674   11.2036 C.3     1  UNL1        0.0312
     23 C          63.5770   82.2884   12.2806 C.ar    1  UNL1       -0.0179
     24 C          62.8163   80.9992   12.1844 C.ar    1  UNL1       -0.0041
     25 C          61.8435   80.6204   13.2614 C.ar    1  UNL1        0.0005
     26 C          61.6314   81.5306   14.4346 C.ar    1  UNL1        0.0115
     27 C          62.3921   82.8198   14.5309 C.ar    1  UNL1        0.0604
     28 CL         62.1800   83.7301   15.7041 Cl      1  UNL1       -0.0822
     29 C          63.3650   83.1987   13.4538 C.ar    1  UNL1        0.0456
@<TRIPOS>UNITY_ATOM_ATTR
18 1
charge -1
@<TRIPOS>BOND
     1    22    23    1
     2    23    24   ar
     3    24    25   ar
     4    25    26   ar
     5    26    27   ar
     6    27    28    1
     7    27    29   ar
     8    29    20    1
     9    20    21    2
    10    20     1    1
    11     1     2   ar
    12     2     3   ar
    13     3    11    1
    14    11    12   ar
    15    12    13   ar
    16    13    14   ar
    17    14    17    1
    18    17    18   ar
    19    17    19   ar
    20    14    15   ar
    21    15    16   ar
    22     3     4   ar
    23     4     5   ar
    24     5     6    1
    25     5     7   ar
    26     7     8   ar
    27     8     9   ar
    28     9    10   ar
    29    29    23   ar
    30    10     1   ar
    31    16    11   ar
    32    10     4   ar
@<TRIPOS>MOLECULE
*****
 29 32 0 0 0
SMALL
GASTEIGER

@<TRIPOS>ATOM
      1 C          65.3836   92.5332   12.1179 C.ar    1  UNL1        0.0579
      2 C          64.6017   91.9540   10.9763 C.ar    1  UNL1        0.0833
      3 N          63.6359   90.9526   11.5369 N.ar    1  UNL1       -0.3028
      4 C          63.8209   90.9128   13.0249 C.ar    1  UNL1        0.0917
      5 C          63.1454   90.1132   14.0993 C.ar    1  UNL1        0.1561
      6 F          62.0653   89.1363   13.7403 F       1  UNL1       -0.2026
      7 C          63.5501   90.2905   15.5327 C.ar    1  UNL1        0.0311
      8 C          64.6302   91.2674   15.8918 C.ar    1  UNL1        0.0024
      9 C          65.3057   92.0670   14.8174 C.ar    1  UNL1        0.0017
     10 C          64.9011   91.8897   13.3840 C.ar    1  UNL1        0.0229
     11 C          62.6569   90.1345   10.7480 C.ar    1  UNL1        0.0641
     12 C          61.3453   90.7311   10.3308 C.ar    1  UNL1        0.0176
     13 C          60.3663   89.9130    9.5419 C.ar    1  UNL1        0.0026
     14 C          60.6989   88.4984    9.1702 C.ar    1  UNL1        0.0141
     15 C          62.0104   87.9018    9.5874 C.ar    1  UNL1        0.0026
     16 C          62.9893   88.7199   10.3763 C.ar    1  UNL1        0.0176
     17 C          59.7199   87.6803    8.3814 C.2     1  UNL1        0.0729
     18 O          58.7290   88.3581    7.4820 O.co2   1  UNL1       -0.5446
     19 O          59.7318   86.1844    8.4918 O.co2   1  UNL1       -0.5446
     20 C          66.4592   93.5733   12.0119 C.2     1  UNL1        0.1976
     21 O          67.2242   93.9883   13.2335 O.2     1  UNL1       -0.2865
     22 C          68.0301   92.0435    9.9645 C.3     1  UNL1        0.0312
     23 C          67.5554   93.4335    9.6605 C.ar    1  UNL1       -0.0179
     24 C          67.8660   94.0586    8.3328 C.ar    1  UNL1       -0.0041
     25 C          67.3913   95.4486    8.0289 C.ar    1  UNL1        0.0005
     26 C          66.6058   96.2135    9.0526 C.ar    1  UNL1        0.0115
     27 C          66.2951   95.5885   10.3802 C.ar    1  UNL1        0.0604
     28 CL         65.5097   96.3534   11.4039 Cl      1  UNL1       -0.0822
     29 C          66.7699   94.1984   10.6842 C.ar    1  UNL1        0.0456
@<TRIPOS>UNITY_ATOM_ATTR
18 1
charge -1
@<TRIPOS>BOND
     1    22    23    1
     2    23    24   ar
     3    24    25   ar
     4    25    26   ar
     5    26    27   ar
     6    27    28    1
     7    27    29   ar
     8    29    20    1
     9    20    21    2
    10    20     1    1
    11     1     2   ar
    12     2     3   ar
    13     3    11    1
    14    11    12   ar
    15    12    13   ar
    16    13    14   ar
    17    14    17    1
    18    17    18   ar
    19    17    19   ar
    20    14    15   ar
    21    15    16   ar
    22     3     4   ar
    23     4     5   ar
    24     5     6    1
    25     5     7   ar
    26     7     8   ar
    27     8     9   ar
    28     9    10   ar
    29    29    23   ar
    30    10     1   ar
    31    16    11   ar
    32    10     4   ar
@<TRIPOS>MOLECULE
*****
 29 32 0 0 0
SMALL
GASTEIGER

@<TRIPOS>ATOM
      1 C          63.5881   85.7419   12.9096 C.ar    1  UNL1        0.0579
      2 C          62.7630   85.8029   11.6584 C.ar    1  UNL1        0.0833
      3 N          62.4271   87.2407   11.3944 N.ar    1  UNL1       -0.3028
      4 C          63.0446   88.0684   12.4824 C.ar    1  UNL1        0.0917
      5 C          63.0462   89.5458   12.7414 C.ar    1  UNL1        0.1561
      6 F          62.3286   90.4722   11.8049 F       1  UNL1       -0.2026
      7 C          63.7654   90.0969   13.9368 C.ar    1  UNL1        0.0311
      8 C          64.4829   89.1705   14.8732 C.ar    1  UNL1        0.0024
      9 C          64.4813   87.6931   14.6143 C.ar    1  UNL1        0.0017
     10 C          63.7622   87.1420   13.4188 C.ar    1  UNL1        0.0229
     11 C          61.6161   87.7599   10.2443 C.ar    1  UNL1        0.0641
     12 C          61.0238   86.8034    9.2520 C.ar    1  UNL1        0.0176
     13 C          60.2127   87.3225    8.1019 C.ar    1  UNL1        0.0026
     14 C          59.9940   88.7981    7.9440 C.ar    1  UNL1        0.0141
     15 C          60.5863   89.7545    8.9362 C.ar    1  UNL1        0.0026
     16 C          61.3973   89.2353   10.0863 C.ar    1  UNL1        0.0176
     17 C          59.1829   89.3172    6.7939 C.2     1  UNL1        0.0729
     18 O          57.7076   89.0523    6.7365 O.co2   1  UNL1       -0.5446
     19 O          59.8473   90.1012    5.7013 O.co2   1  UNL1       -0.5446
     20 C          64.1420   84.4989   13.5407 C.2     1  UNL1        0.1976
     21 O          65.4530   84.5472   14.2679 O.2     1  UNL1       -0.2865
     22 C          62.1667   83.7562   15.6730 C.3     1  UNL1        0.0312
     23 C          62.3971   82.8362   14.5108 C.ar    1  UNL1       -0.0179
     24 C          61.6399   81.5450   14.4149 C.ar    1  UNL1       -0.0041
     25 C          61.8704   80.6251   13.2527 C.ar    1  UNL1        0.0005
     26 C          62.8580   80.9964   12.1866 C.ar    1  UNL1        0.0115
     27 C          63.6152   82.2877   12.2825 C.ar    1  UNL1        0.0604
     28 CL         64.6029   82.6590   11.2164 Cl      1  UNL1       -0.0822
     29 C          63.3848   83.2076   13.4447 C.ar    1  UNL1        0.0456
@<TRIPOS>UNITY_ATOM_ATTR
18 1
charge -1
@<TRIPOS>BOND
     1    22    23    1
     2    23    24   ar
     3    24    25   ar
     4    25    26   ar
     5    26    27   ar
     6    27    28    1
     7    27    29   ar
     8    29    20    1
     9    20    21    2
    10    20     1    1
    11     1     2   ar
    12     2     3   ar
    13     3    11    1
    14    11    12   ar
    15    12    13   ar
    16    13    14   ar
    17    14    17    1
    18    17    18   ar
    19    17    19   ar
    20    14    15   ar
    21    15    16   ar
    22     3     4   ar
    23     4     5   ar
    24     5     6    1
    25     5     7   ar
    26     7     8   ar
    27     8     9   ar
    28     9    10   ar
    29    29    23   ar
    30    10     1   ar
    31    16    11   ar
    32    10     4   ar
@<TRIPOS>MOLECULE
*****
 29 32 0 0 0
SMALL
GASTEIGER

@<TRIPOS>ATOM
      1 C          63.1340   89.4454   12.4874 C.ar    1  UNL1        0.0579
      2 C          63.5517   88.0924   12.9823 C.ar    1  UNL1        0.0833
      3 N          62.8164   87.0588   12.1817 N.ar    1  UNL1       -0.3028
      4 C          61.9443   87.7730   11.1921 C.ar    1  UNL1        0.0917
      5 C          60.9968   87.2708   10.1433 C.ar    1  UNL1        0.1561
      6 F          60.8004   85.7957    9.9543 F       1  UNL1       -0.2026
      7 C          60.2456   88.2436    9.2835 C.ar    1  UNL1        0.0311
      8 C          60.4419   89.7186    9.4725 C.ar    1  UNL1        0.0024
      9 C          61.3894   90.2208   10.5212 C.ar    1  UNL1        0.0017
     10 C          62.1406   89.2480   11.3810 C.ar    1  UNL1        0.0229
     11 C          62.9327   85.5720   12.3425 C.ar    1  UNL1        0.0641
     12 C          63.2306   84.7098   11.1516 C.ar    1  UNL1        0.0176
     13 C          63.3469   83.2230   11.3124 C.ar    1  UNL1        0.0026
     14 C          63.1654   82.5983   12.6640 C.ar    1  UNL1        0.0141
     15 C          62.8675   83.4604   13.8548 C.ar    1  UNL1        0.0026
     16 C          62.7511   84.9472   13.6940 C.ar    1  UNL1        0.0176
     17 C          63.2817   81.1115   12.8248 C.2     1  UNL1        0.0729
     18 O          62.8662   80.2014   11.7071 O.co2   1  UNL1       -0.5446
     19 O          63.8135   80.5348   14.1032 O.co2   1  UNL1       -0.5446
     20 C          63.6238   90.7643   13.0077 C.2     1  UNL1        0.1976
     21 O          62.9058   91.4375   14.1395 O.2     1  UNL1       -0.2865
     22 C          66.1608   91.0031   14.5909 C.3     1  UNL1        0.0312
     23 C          66.1002   91.5294   13.1875 C.ar    1  UNL1       -0.0179
     24 C          67.3081   92.1751   12.5759 C.ar    1  UNL1       -0.0041
     25 C          67.2474   92.7014   11.1726 C.ar    1  UNL1        0.0005
     26 C          65.9789   92.5821   10.3810 C.ar    1  UNL1        0.0115
     27 C          64.7711   91.9364   10.9926 C.ar    1  UNL1        0.0604
     28 CL         63.5026   91.8170   10.2010 Cl      1  UNL1       -0.0822
     29 C          64.8317   91.4100   12.3959 C.ar    1  UNL1        0.0456
@<TRIPOS>UNITY_ATOM_ATTR
18 1
charge -1
@<TRIPOS>BOND
     1    22    23    1
     2    23    24   ar
     3    24    25   ar
     4    25    26   ar
     5    26    27   ar
     6    27    28    1
     7    27    29   ar
     8    29    20    1
     9    20    21    2
    10    20     1    1
    11     1     2   ar
    12     2     3   ar
    13     3    11    1
    14    11    12   ar
    15    12    13   ar
    16    13    14   ar
    17    14    17    1
    18    17    18   ar
    19    17    19   ar
    20    14    15   ar
    21    15    16   ar
    22     3     4   ar
    23     4     5   ar
    24     5     6    1
    25     5     7   ar
    26     7     8   ar
    27     8     9   ar
    28     9    10   ar
    29    29    23   ar
    30    10     1   ar
    31    16    11   ar
    32    10     4   ar
@<TRIPOS>MOLECULE
*****
 29 32 0 0 0
SMALL
GASTEIGER

@<TRIPOS>ATOM
      1 C          65.2691   92.5407   12.0171 C.ar    1  UNL1        0.0579
      2 C          64.4878   91.9385   10.8871 C.ar    1  UNL1        0.0833
      3 N          63.5832   90.8869   11.4578 N.ar    1  UNL1       -0.3028
      4 C          63.8054   90.8392   12.9405 C.ar    1  UNL1        0.0917
      5 C          63.1936   89.9970   14.0205 C.ar    1  UNL1        0.1561
      6 F          62.1516   88.9749   13.6748 F       1  UNL1       -0.2026
      7 C          63.6237   90.1771   15.4461 C.ar    1  UNL1        0.0311
      8 C          64.6657   91.1992   15.7918 C.ar    1  UNL1        0.0024
      9 C          65.2776   92.0413   14.7118 C.ar    1  UNL1        0.0017
     10 C          64.8474   91.8613   13.2862 C.ar    1  UNL1        0.0229
     11 C          62.6246   90.0329   10.6820 C.ar    1  UNL1        0.0641
     12 C          62.9400   88.5876   10.4332 C.ar    1  UNL1        0.0176
     13 C          61.9814   87.7336    9.6574 C.ar    1  UNL1        0.0026
     14 C          60.7075   88.3248    9.1305 C.ar    1  UNL1        0.0141
     15 C          60.3922   89.7700    9.3794 C.ar    1  UNL1        0.0026
     16 C          61.3507   90.6240   10.1552 C.ar    1  UNL1        0.0176
     17 C          59.7489   87.4708    8.3548 C.2     1  UNL1        0.0729
     18 O          60.0215   86.0061    8.1802 O.co2   1  UNL1       -0.5446
     19 O          58.5178   88.0815    7.7536 O.co2   1  UNL1       -0.5446
     20 C          66.2925   93.6310   11.8988 C.2     1  UNL1        0.1976
     21 O          66.9382   94.1906   13.1316 O.2     1  UNL1       -0.2865
     22 C          65.2789   96.3082   11.0017 C.3     1  UNL1        0.0312
     23 C          66.1635   95.5003   10.0990 C.ar    1  UNL1       -0.0179
     24 C          66.5411   96.0311    8.7479 C.ar    1  UNL1       -0.0041
     25 C          67.4257   95.2231    7.8452 C.ar    1  UNL1        0.0005
     26 C          67.9326   93.8845    8.2938 C.ar    1  UNL1        0.0115
     27 C          67.5549   93.3538    9.6449 C.ar    1  UNL1        0.0604
     28 CL         68.0617   92.0151   10.0934 Cl      1  UNL1       -0.0822
     29 C          66.6703   94.1617   10.5475 C.ar    1  UNL1        0.0456
@<TRIPOS>UNITY_ATOM_ATTR
18 1
charge -1
@<TRIPOS>BOND
     1    22    23    1
     2    23    24   ar
     3    24    25   ar
     4    25    26   ar
     5    26    27   ar
     6    27    28    1
     7    27    29   ar
     8    29    20    1
     9    20    21    2
    10    20     1    1
    11     1     2   ar
    12     2     3   ar
    13     3    11    1
    14    11    12   ar
    15    12    13   ar
    16    13    14   ar
    17    14    17    1
    18    17    18   ar
    19    17    19   ar
    20    14    15   ar
    21    15    16   ar
    22     3     4   ar
    23     4     5   ar
    24     5     6    1
    25     5     7   ar
    26     7     8   ar
    27     8     9   ar
    28     9    10   ar
    29    29    23   ar
    30    10     1   ar
    31    16    11   ar
    32    10     4   ar
@<TRIPOS>MOLECULE
*****
 29 32 0 0 0
SMALL
GASTEIGER

@<TRIPOS>ATOM
      1 C          63.8824   89.1960   14.7195 C.ar    1  UNL1        0.0579
      2 C          64.0151   88.2521   13.5613 C.ar    1  UNL1        0.0833
      3 N          63.6981   86.8702   14.0510 N.ar    1  UNL1       -0.3028
      4 C          63.3695   86.9600   15.5118 C.ar    1  UNL1        0.0917
      5 C          62.9812   85.9186   16.5191 C.ar    1  UNL1        0.1561
      6 F          62.8673   84.4811   16.1058 F       1  UNL1       -0.2026
      7 C          62.7069   86.3146   17.9396 C.ar    1  UNL1        0.0311
      8 C          62.8209   87.7521   18.3528 C.ar    1  UNL1        0.0024
      9 C          63.2091   88.7935   17.3455 C.ar    1  UNL1        0.0017
     10 C          63.4834   88.3974   15.9250 C.ar    1  UNL1        0.0229
     11 C          63.7079   85.6182   13.2248 C.ar    1  UNL1        0.0641
     12 C          64.6245   84.4875   13.5875 C.ar    1  UNL1        0.0176
     13 C          64.6343   83.2355   12.7614 C.ar    1  UNL1        0.0026
     14 C          63.7276   83.1142   11.5726 C.ar    1  UNL1        0.0141
     15 C          62.8110   84.2449   11.2100 C.ar    1  UNL1        0.0026
     16 C          62.8012   85.4968   12.0361 C.ar    1  UNL1        0.0176
     17 C          63.7374   81.8622   10.7465 C.2     1  UNL1        0.0729
     18 O          64.6598   81.7478    9.5691 O.co2   1  UNL1       -0.5446
     19 O          62.8249   80.7248   11.0978 O.co2   1  UNL1       -0.5446
     20 C          64.1090   90.6782   14.6794 C.2     1  UNL1        0.1976
     21 O          63.5773   91.5483   15.7794 O.2     1  UNL1       -0.2865
     22 C          66.9635   91.5204   15.0569 C.3     1  UNL1        0.0312
     23 C          66.2947   91.7115   13.7278 C.ar    1  UNL1       -0.0179
     24 C          67.0531   92.3237   12.5877 C.ar    1  UNL1       -0.0041
     25 C          66.3842   92.5148   11.2587 C.ar    1  UNL1        0.0005
     26 C          64.9570   92.0937   11.0700 C.ar    1  UNL1        0.0115
     27 C          64.1986   91.4815   12.2102 C.ar    1  UNL1        0.0604
     28 CL         62.7713   91.0604   12.0214 Cl      1  UNL1       -0.0822
     29 C          64.8674   91.2904   13.5391 C.ar    1  UNL1        0.0456
@<TRIPOS>UNITY_ATOM_ATTR
18 1
charge -1
@<TRIPOS>BOND
     1    22    23    1
     2    23    24   ar
     3    24    25   ar
     4    25    26   ar
     5    26    27   ar
     6    27    28    1
     7    27    29   ar
     8    29    20    1
     9    20    21    2
    10    20     1    1
    11     1     2   ar
    12     2     3   ar
    13     3    11    1
    14    11    12   ar
    15    12    13   ar
    16    13    14   ar
    17    14    17    1
    18    17    18   ar
    19    17    19   ar
    20    14    15   ar
    21    15    16   ar
    22     3     4   ar
    23     4     5   ar
    24     5     6    1
    25     5     7   ar
    26     7     8   ar
    27     8     9   ar
    28     9    10   ar
    29    29    23   ar
    30    10     1   ar
    31    16    11   ar
    32    10     4   ar
@<TRIPOS>MOLECULE
*****
 29 32 0 0 0
SMALL
GASTEIGER

@<TRIPOS>ATOM
      1 C          62.4462   89.2618   11.6267 C.ar    1  UNL1        0.0579
      2 C          62.9235   88.0163   12.3129 C.ar    1  UNL1        0.0833
      3 N          62.4012   86.8365   11.5478 N.ar    1  UNL1       -0.3028
      4 C          61.6012   87.3529   10.3888 C.ar    1  UNL1        0.0917
      5 C          60.8509   86.6519    9.2954 C.ar    1  UNL1        0.1561
      6 F          60.8231   85.1529    9.2466 F       1  UNL1       -0.2026
      7 C          60.1284   87.4498    8.2508 C.ar    1  UNL1        0.0311
      8 C          60.1563   88.9487    8.2995 C.ar    1  UNL1        0.0024
      9 C          60.9065   89.6497    9.3930 C.ar    1  UNL1        0.0017
     10 C          61.6290   88.8518   10.4376 C.ar    1  UNL1        0.0229
     11 C          62.6375   85.3936   11.8829 C.ar    1  UNL1        0.0641
     12 C          62.4193   84.9034   13.2837 C.ar    1  UNL1        0.0176
     13 C          62.6556   83.4606   13.6188 C.ar    1  UNL1        0.0026
     14 C          63.1101   82.5078   12.5531 C.ar    1  UNL1        0.0141
     15 C          63.3283   82.9980   11.1523 C.ar    1  UNL1        0.0026
     16 C          63.0920   84.4409   10.8173 C.ar    1  UNL1        0.0176
     17 C          63.3464   81.0649   12.8881 C.2     1  UNL1        0.0729
     18 O          64.0423   80.6956   14.1646 O.co2   1  UNL1       -0.5446
     19 O          62.8867   79.9915   11.9467 O.co2   1  UNL1       -0.5446
     20 C          62.7354   90.6701   12.0546 C.2     1  UNL1        0.1976
     21 O          61.7045   91.7412   11.8554 O.2     1  UNL1       -0.2865
     22 C          64.8140   92.1454   10.4725 C.3     1  UNL1        0.0312
     23 C          65.0951   91.7450   11.8906 C.ar    1  UNL1       -0.0179
     24 C          66.4154   92.0823   12.5175 C.ar    1  UNL1       -0.0041
     25 C          66.6964   91.6818   13.9355 C.ar    1  UNL1        0.0005
     26 C          65.6571   90.9442   14.7265 C.ar    1  UNL1        0.0115
     27 C          64.3368   90.6069   14.0996 C.ar    1  UNL1        0.0604
     28 CL         63.2975   89.8693   14.8906 Cl      1  UNL1       -0.0822
     29 C          64.0558   91.0074   12.6816 C.ar    1  UNL1        0.0456
@<TRIPOS>UNITY_ATOM_ATTR
18 1
charge -1
@<TRIPOS>BOND
     1    22    23    1
     2    23    24   ar
     3    24    25   ar
     4    25    26   ar
     5    26    27   ar
     6    27    28    1
     7    27    29   ar
     8    29    20    1
     9    20    21    2
    10    20     1    1
    11     1     2   ar
    12     2     3   ar
    13     3    11    1
    14    11    12   ar
    15    12    13   ar
    16    13    14   ar
    17    14    17    1
    18    17    18   ar
    19    17    19   ar
    20    14    15   ar
    21    15    16   ar
    22     3     4   ar
    23     4     5   ar
    24     5     6    1
    25     5     7   ar
    26     7     8   ar
    27     8     9   ar
    28     9    10   ar
    29    29    23   ar
    30    10     1   ar
    31    16    11   ar
    32    10     4   ar
