@<TRIPOS>MOLECULE
*****
 54 61 0 0 0
SMALL
GASTEIGER

@<TRIPOS>ATOM
      1 C          62.0226   95.5834   -4.0400 C.3     1  UNL1        0.1445
      2 C          63.3743   95.2365   -3.4900 C.3     1  UNL1        0.0322
      3 C          63.4897   94.5490   -2.1617 C.3     1  UNL1        0.0049
      4 C          64.8414   94.2022   -1.6117 C.3     1  UNL1        0.0002
      5 C          62.2533   94.2083   -1.3837 C.3     1  UNL1        0.0298
      6 C          60.9016   94.5551   -1.9338 C.3     1  UNL1        0.1418
      7 O          60.7862   95.2426   -3.2619 O.3     1  UNL1       -0.3537
      8 C          59.8684   94.0977   -0.9473 C.3     1  UNL1        0.1373
      9 O          58.3829   94.2441   -1.0946 O.3     1  UNL1       -0.3820
     10 C          60.5815   93.4682    0.2125 C.3     1  UNL1        0.0272
     11 C          59.0874   93.4717    0.3442 C.3     1  UNL1        0.0025
     12 C          60.0792   92.8415    1.4794 C.3     1  UNL1        0.0023
     13 C          58.6053   92.7731    1.7491 C.3     1  UNL1        0.0001
     14 C          58.1029   92.1465    3.0160 C.3     1  UNL1        0.0001
     15 C          59.0745   91.5882    4.0131 C.3     1  UNL1        0.0023
     16 C          58.5722   90.9615    5.2800 C.3     1  UNL1        0.0251
     17 C          57.6172   90.4694    6.3268 C.3     1  UNL1        0.0024
     18 C          57.2689   91.3489    4.6464 C.3     1  UNL1        0.0024
     19 C          59.5438   90.4032    6.2771 C.3     1  UNL1        0.1177
     20 C          61.0178   90.4716    6.0074 C.3     1  UNL1        0.0296
     21 C          61.5201   91.0983    4.7405 C.3     1  UNL1        0.0025
     22 C          60.5485   91.6565    3.7434 C.3     1  UNL1        0.0002
     23 C          62.0225   91.7249    3.4737 C.3     1  UNL1        0.0000
     24 C          61.0509   92.2832    2.4765 C.3     1  UNL1        0.0001
     25 C          62.5248   92.3516    2.2068 C.3     1  UNL1        0.0000
     26 C          63.0272   92.9782    0.9399 C.3     1  UNL1        0.0002
     27 C          62.0556   93.5365   -0.0572 C.3     1  UNL1        0.0046
     28 C          63.4931   93.6760   -0.4621 C.3     1  UNL1        0.0002
     29 H          57.9421   93.8660   -0.3176 H       1  UNL1        0.2104
     30 C          61.9072   96.2709   -5.3682 C.3     1  UNL1        0.1664
     31 C          63.1049   96.3751   -6.2653 C.3     1  UNL1        0.1156
     32 C          62.2789   95.8987   -7.4233 C.3     1  UNL1        0.0319
     33 C          63.9308   96.8515   -5.1074 C.3     1  UNL1        0.0319
     34 O          64.3025   96.4794   -7.1625 O.3     1  UNL1       -0.3843
     35 H          64.0571   96.2114   -8.0618 H       1  UNL1        0.2103
     36 O          60.5942   96.8542   -5.7992 O.3     1  UNL1       -0.3514
     37 C          58.1099   96.6947   -5.0558 C.3     1  UNL1        0.0346
     38 C          59.3329   96.0571   -5.6454 C.3     1  UNL1        0.1423
     39 O          59.0415   89.7766    7.5440 O.3     1  UNL1       -0.3320
     40 C          59.9810   89.0059    8.4233 C.3     1  UNL1        0.2518
     41 C          60.5906   89.6621    9.6266 C.3     1  UNL1        0.1343
     42 N          61.5301   88.8914   10.5060 N.3     1  UNL1       -0.2663
     43 C          61.8601   87.4644   10.1821 C.3     1  UNL1        0.1048
     44 C          61.2506   86.8082    8.9789 C.3     1  UNL1        0.1621
     45 O          60.3110   87.5789    8.0994 O.3     1  UNL1       -0.3280
     46 C          62.1396   89.5476   11.7092 C.3     1  UNL1        0.0751
     47 C          63.1957   90.5987   11.5359 C.3     1  UNL1        0.0479
     48 C          63.6652   91.4528   10.3957 C.3     1  UNL1        0.0749
     49 N          64.6891   92.0852   11.2909 N.3     1  UNL1       -0.2704
     50 C          64.2197   91.2311   12.4312 C.3     1  UNL1        0.0749
     51 C          65.7451   93.1363   11.1177 C.3     1  UNL1        0.1042
     52 C          67.0456   92.7907   10.4548 C.3     1  UNL1        0.1544
     53 O          68.0509   93.8667   10.1690 O.3     1  UNL1       -0.3805
     54 H          67.6900   94.4792    9.5090 H       1  UNL1        0.2105
@<TRIPOS>BOND
     1    37    38    1
     2    38    36    1
     3    30    36    1
     4    30     1    1
     5     1     2    1
     6     2     3    1
     7     3     4    1
     8     5     3    1
     9     5     6    1
    10     6     7    1
    11     6     8    1
    12     8     9    1
    13     8    10    1
    14    10    11    1
    15    10    12    1
    16    12    13    1
    17    13    14    1
    18    15    14    1
    19    15    16    1
    20    16    17    1
    21    16    18    1
    22    16    19    1
    23    19    39    1
    24    40    39    1
    25    40    41    1
    26    41    42    1
    27    42    46    1
    28    46    47    1
    29    47    48    1
    30    48    49    1
    31    49    51    1
    32    51    52    1
    33    52    53    1
    34    49    50    1
    35    42    43    1
    36    43    44    1
    37    44    45    1
    38    19    20    1
    39    20    21    1
    40    22    21    1
    41    22    23    1
    42    24    23    1
    43    24    25    1
    44    25    26    1
    45    26    27    1
    46    27    28    1
    47    30    31    1
    48    31    32    1
    49    31    33    1
    50    31    34    1
    51     7     1    1
    52    27    10    1
    53    27     5    1
    54    24    12    1
    55    22    15    1
    56    45    40    1
    57    24    22    1
    58    50    47    1
    59     9    29    1
    60    53    54    1
    61    34    35    1
@<TRIPOS>MOLECULE
*****
 54 61 0 0 0
SMALL
GASTEIGER

@<TRIPOS>ATOM
      1 C          63.9268   94.8825   -4.7899 C.3     1  UNL1        0.1445
      2 C          62.4612   95.1525   -4.9603 C.3     1  UNL1        0.0322
      3 C          61.5032   94.8156   -3.8562 C.3     1  UNL1        0.0049
      4 C          60.0376   95.0857   -4.0267 C.3     1  UNL1        0.0002
      5 C          62.0109   94.2088   -2.5819 C.3     1  UNL1        0.0298
      6 C          63.4765   93.9387   -2.4115 C.3     1  UNL1        0.1418
      7 O          64.4345   94.2756   -3.5155 O.3     1  UNL1       -0.3537
      8 C          63.6821   93.3371   -1.0530 C.3     1  UNL1        0.1373
      9 O          64.9957   92.9119   -0.4666 O.3     1  UNL1       -0.3820
     10 C          62.3436   93.2353   -0.3837 C.3     1  UNL1        0.0272
     11 C          63.4829   92.7290    0.4504 C.3     1  UNL1        0.0025
     12 C          61.9318   92.7216    0.9641 C.3     1  UNL1        0.0023
     13 C          62.9647   92.1829    1.9091 C.3     1  UNL1        0.0001
     14 C          62.5529   91.6692    3.2569 C.3     1  UNL1        0.0001
     15 C          61.1083   91.6942    3.6597 C.3     1  UNL1        0.0023
     16 C          60.6965   91.1806    5.0075 C.3     1  UNL1        0.0251
     17 C          60.7988   90.5866    6.3811 C.3     1  UNL1        0.0024
     18 C          62.1767   90.9492    5.0817 C.3     1  UNL1        0.0024
     19 C          59.2518   91.2056    5.4104 C.3     1  UNL1        0.1177
     20 C          58.2189   91.7444    4.4654 C.3     1  UNL1        0.0296
     21 C          58.6307   92.2580    3.1176 C.3     1  UNL1        0.0025
     22 C          60.0753   92.2330    2.7148 C.3     1  UNL1        0.0002
     23 C          59.0425   92.7717    1.7698 C.3     1  UNL1        0.0000
     24 C          60.4871   92.7467    1.3670 C.3     1  UNL1        0.0001
     25 C          59.4542   93.2854    0.4220 C.3     1  UNL1        0.0000
     26 C          59.8660   93.7990   -0.9258 C.3     1  UNL1        0.0002
     27 C          61.3107   93.7740   -1.3286 C.3     1  UNL1        0.0046
     28 C          60.3955   94.3393   -2.3741 C.3     1  UNL1        0.0002
     29 H          64.8519   92.5552    0.4239 H       1  UNL1        0.2104
     30 C          64.8848   95.2194   -5.8939 C.3     1  UNL1        0.1664
     31 C          66.1083   96.0366   -5.6019 C.3     1  UNL1        0.1156
     32 C          66.7927   95.4384   -6.7952 C.3     1  UNL1        0.0319
     33 C          65.4240   96.6348   -4.4086 C.3     1  UNL1        0.0319
     34 O          67.3318   96.8538   -5.3099 O.3     1  UNL1       -0.3843
     35 H          68.0128   96.6652   -5.9745 H       1  UNL1        0.2103
     36 O          64.6193   94.7390   -7.2899 O.3     1  UNL1       -0.3514
     37 C          64.4351   92.2990   -6.4169 C.3     1  UNL1        0.0346
     38 C          64.4292   93.2751   -7.5558 C.3     1  UNL1        0.1423
     39 O          58.8400   90.6920    6.7582 O.3     1  UNL1       -0.3320
     40 C          59.2782   89.3296    7.2075 C.3     1  UNL1        0.2518
     41 C          60.0239   89.1697    8.4992 C.3     1  UNL1        0.1343
     42 N          60.4621   87.8074    8.9486 N.3     1  UNL1       -0.2663
     43 C          60.1546   86.6049    8.1063 C.3     1  UNL1        0.1048
     44 C          59.4088   86.7647    6.8147 C.3     1  UNL1        0.1621
     45 O          58.9706   88.1271    6.3653 O.3     1  UNL1       -0.3280
     46 C          61.2078   87.6475   10.2402 C.3     1  UNL1        0.0751
     47 C          61.8181   86.3241   10.5950 C.3     1  UNL1        0.0479
     48 C          62.3112   85.1405    9.8165 C.3     1  UNL1        0.0749
     49 N          62.6812   84.4524   11.0969 N.3     1  UNL1       -0.2704
     50 C          62.1881   85.6358   11.8755 C.3     1  UNL1        0.0749
     51 C          63.2914   83.1289   11.4518 C.3     1  UNL1        0.1042
     52 C          64.6603   83.0739   12.0627 C.3     1  UNL1        0.1544
     53 O          64.9782   83.9096   13.2671 O.3     1  UNL1       -0.3805
     54 H          64.9453   84.8488   13.0268 H       1  UNL1        0.2105
@<TRIPOS>BOND
     1    37    38    1
     2    38    36    1
     3    30    36    1
     4    30     1    1
     5     1     2    1
     6     2     3    1
     7     3     4    1
     8     5     3    1
     9     5     6    1
    10     6     7    1
    11     6     8    1
    12     8     9    1
    13     8    10    1
    14    10    11    1
    15    10    12    1
    16    12    13    1
    17    13    14    1
    18    15    14    1
    19    15    16    1
    20    16    17    1
    21    16    18    1
    22    16    19    1
    23    19    39    1
    24    40    39    1
    25    40    41    1
    26    41    42    1
    27    42    46    1
    28    46    47    1
    29    47    48    1
    30    48    49    1
    31    49    51    1
    32    51    52    1
    33    52    53    1
    34    49    50    1
    35    42    43    1
    36    43    44    1
    37    44    45    1
    38    19    20    1
    39    20    21    1
    40    22    21    1
    41    22    23    1
    42    24    23    1
    43    24    25    1
    44    25    26    1
    45    26    27    1
    46    27    28    1
    47    30    31    1
    48    31    32    1
    49    31    33    1
    50    31    34    1
    51     7     1    1
    52    27    10    1
    53    27     5    1
    54    24    12    1
    55    22    15    1
    56    45    40    1
    57    24    22    1
    58    50    47    1
    59     9    29    1
    60    53    54    1
    61    34    35    1
