@<TRIPOS>MOLECULE
*****
 39 43 0 0 0
SMALL
GASTEIGER

@<TRIPOS>ATOM
      1 N          63.8068   90.1823   13.5437 N.3     1  UNL1       -0.2679
      2 C          64.6268   91.3072   12.9850 C.3     1  UNL1        0.0978
      3 C          64.5011   91.6800   11.5375 C.3     1  UNL1        0.0224
      4 C          65.3212   92.8049   10.9788 C.3     1  UNL1        0.0065
      5 C          66.2668   93.5571   11.8676 C.3     1  UNL1        0.0277
      6 C          66.3924   93.1844   13.3151 C.ar    1  UNL1       -0.0073
      7 C          67.3380   93.9366   14.2039 C.ar    1  UNL1       -0.0015
      8 C          67.4637   93.5639   15.6514 C.ar    1  UNL1        0.0203
      9 C          66.6437   92.4389   16.2101 C.ar    1  UNL1        0.0985
     10 N          65.6980   91.6867   15.3214 N.ar    1  UNL1       -0.2471
     11 C          65.5724   92.0594   13.8738 C.ar    1  UNL1        0.0695
     12 C          64.4736   89.0716   14.2997 C.3     1  UNL1        0.0725
     13 C          63.8624   88.5554   15.5686 C.3     1  UNL1        0.0187
     14 C          62.8828   87.3364   17.0018 C.3     1  UNL1        0.0014
     15 C          63.7254   87.0779   15.7881 C.3     1  UNL1        0.0158
     16 C          64.5681   86.8194   14.5745 C.3     1  UNL1        0.0014
     17 C          63.5884   85.6004   16.0077 C.3     1  UNL1        0.0685
     18 N          62.3755   84.8765   15.5030 N.3     1  UNL1       -0.2985
     19 H          61.7163   85.5891   15.1899 H       1  UNL1        0.1232
     20 C          62.5049   83.8850   14.3848 C.3     1  UNL1        0.0543
     21 C          62.3186   82.4214   14.6548 C.3     1  UNL1        0.0213
     22 C          62.4480   81.4300   13.5366 C.3     1  UNL1        0.0679
     23 C          62.7639   81.9023   12.1483 C.3     1  UNL1        0.2640
     24 F          63.0494   81.8613   10.6764 F       1  UNL1       -0.2043
     25 F          62.6767   80.4244   11.9072 F       1  UNL1       -0.2043
     26 C          62.9503   83.3660   11.8783 C.3     1  UNL1        0.0679
     27 C          62.8208   84.3574   12.9966 C.3     1  UNL1        0.0213
     28 C          62.3199   90.1682   13.3465 C.3     1  UNL1        0.0886
     29 C          61.7344   89.5761   12.0988 C.3     1  UNL1        0.0748
     30 C          62.2920   88.3003   11.5408 C.3     1  UNL1        0.0432
     31 C          61.7065   87.7083   10.2931 C.ar    1  UNL1       -0.0234
     32 C          62.2642   86.4325    9.7351 C.ar    1  UNL1       -0.0045
     33 C          61.6787   85.8405    8.4874 C.ar    1  UNL1       -0.0003
     34 C          60.5356   86.5243    7.7978 C.ar    1  UNL1       -0.0003
     35 C          59.9779   87.8001    8.3558 C.ar    1  UNL1       -0.0032
     36 C          60.5634   88.3921    9.6034 C.ar    1  UNL1       -0.0103
     37 C          60.0057   89.6679   10.1615 C.3     1  UNL1        0.0953
     38 N          60.5912   90.2599   11.4091 N.3     1  UNL1       -0.2934
     39 H          59.8331   90.3237   12.0886 H       1  UNL1        0.1236
@<TRIPOS>BOND
     1    14    15    1
     2    15    16    1
     3    15    13    1
     4    13    12    1
     5    12     1    1
     6     1    28    1
     7    29    28    1
     8    29    30    1
     9    30    31    1
    10    31    32   ar
    11    32    33   ar
    12    33    34   ar
    13    34    35   ar
    14    35    36   ar
    15    36    37    1
    16    37    38    1
    17     2     1    1
    18     2     3    1
    19     3     4    1
    20     4     5    1
    21     5     6    1
    22     6     7   ar
    23     7     8   ar
    24     8     9   ar
    25     9    10   ar
    26    10    11   ar
    27    15    17    1
    28    17    18    1
    29    18    20    1
    30    20    21    1
    31    21    22    1
    32    22    23    1
    33    23    24    1
    34    23    25    1
    35    23    26    1
    36    26    27    1
    37    38    29    1
    38    11     2    1
    39    27    20    1
    40    36    31   ar
    41    11     6   ar
    42    38    39    1
    43    18    19    1
@<TRIPOS>MOLECULE
*****
 39 43 0 0 0
SMALL
GASTEIGER

@<TRIPOS>ATOM
      1 N          63.4660   88.8124   13.6212 N.3     1  UNL1       -0.2679
      2 C          63.0113   89.1754   12.2386 C.3     1  UNL1        0.0978
      3 C          63.1844   90.5781   11.7364 C.3     1  UNL1        0.0224
      4 C          62.7297   90.9412   10.3538 C.3     1  UNL1        0.0065
      5 C          62.1021   89.9014    9.4735 C.3     1  UNL1        0.0277
      6 C          61.9291   88.4987    9.9757 C.ar    1  UNL1       -0.0073
      7 C          61.3014   87.4589    9.0954 C.ar    1  UNL1       -0.0015
      8 C          61.1284   86.0561    9.5977 C.ar    1  UNL1        0.0203
      9 C          61.5830   85.6931   10.9802 C.ar    1  UNL1        0.0985
     10 N          62.2106   86.7328   11.8606 N.ar    1  UNL1       -0.2471
     11 C          62.3837   88.1357   11.3583 C.ar    1  UNL1        0.0695
     12 C          64.1073   87.4802   13.8742 C.3     1  UNL1        0.0725
     13 C          64.1553   86.9232   15.2662 C.3     1  UNL1        0.0187
     14 C          65.0837   85.1677   14.5206 C.3     1  UNL1        0.0014
     15 C          63.9761   85.4512   15.4916 C.3     1  UNL1        0.0158
     16 C          62.8686   85.7347   16.4626 C.3     1  UNL1        0.0014
     17 C          63.7969   83.9791   15.7170 C.3     1  UNL1        0.0685
     18 N          62.5599   83.2897   15.2224 N.3     1  UNL1       -0.2985
     19 H          61.8844   84.0208   14.9999 H       1  UNL1        0.1232
     20 C          62.6316   82.3876   14.0260 C.3     1  UNL1        0.0543
     21 C          62.3708   80.9183   14.1779 C.3     1  UNL1        0.0213
     22 C          62.4424   80.0162   12.9816 C.3     1  UNL1        0.0679
     23 C          62.7748   80.5835   11.6334 C.3     1  UNL1        0.2640
     24 F          63.0498   80.6484   10.1603 F       1  UNL1       -0.2043
     25 F          62.6096   79.1367   11.2737 F       1  UNL1       -0.2043
     26 C          63.0355   82.0529   11.4815 C.3     1  UNL1        0.0679
     27 C          62.9639   82.9549   12.6778 C.3     1  UNL1        0.0213
     28 C          63.2793   89.7815   14.7507 C.3     1  UNL1        0.0886
     29 C          64.3885   90.7192   15.1255 C.3     1  UNL1        0.0748
     30 C          65.6810   90.6941   14.3648 C.3     1  UNL1        0.0432
     31 C          66.7902   91.6319   14.7395 C.ar    1  UNL1       -0.0234
     32 C          68.0827   91.6068   13.9788 C.ar    1  UNL1       -0.0045
     33 C          69.1918   92.5445   14.3536 C.ar    1  UNL1       -0.0003
     34 C          69.0085   93.5073   15.4891 C.ar    1  UNL1       -0.0003
     35 C          67.7160   93.5323   16.2499 C.ar    1  UNL1       -0.0032
     36 C          66.6069   92.5946   15.8751 C.ar    1  UNL1       -0.0103
     37 C          65.3143   92.6197   16.6358 C.3     1  UNL1        0.0953
     38 N          64.2051   91.6820   16.2610 N.3     1  UNL1       -0.2934
     39 H          63.3968   92.2595   16.0298 H       1  UNL1        0.1236
@<TRIPOS>BOND
     1    14    15    1
     2    15    16    1
     3    15    13    1
     4    13    12    1
     5    12     1    1
     6     1    28    1
     7    29    28    1
     8    29    30    1
     9    30    31    1
    10    31    32   ar
    11    32    33   ar
    12    33    34   ar
    13    34    35   ar
    14    35    36   ar
    15    36    37    1
    16    37    38    1
    17     2     1    1
    18     2     3    1
    19     3     4    1
    20     4     5    1
    21     5     6    1
    22     6     7   ar
    23     7     8   ar
    24     8     9   ar
    25     9    10   ar
    26    10    11   ar
    27    15    17    1
    28    17    18    1
    29    18    20    1
    30    20    21    1
    31    21    22    1
    32    22    23    1
    33    23    24    1
    34    23    25    1
    35    23    26    1
    36    26    27    1
    37    38    29    1
    38    11     2    1
    39    27    20    1
    40    36    31   ar
    41    11     6   ar
    42    38    39    1
    43    18    19    1
@<TRIPOS>MOLECULE
*****
 39 43 0 0 0
SMALL
GASTEIGER

@<TRIPOS>ATOM
      1 N          64.0781   90.0555   13.9563 N.3     1  UNL1       -0.2679
      2 C          64.9710   91.2513   14.1070 C.3     1  UNL1        0.0978
      3 C          65.5767   91.5716   15.4414 C.3     1  UNL1        0.0224
      4 C          66.4697   92.7674   15.5921 C.3     1  UNL1        0.0065
      5 C          66.7569   93.6429   14.4085 C.3     1  UNL1        0.0277
      6 C          66.1512   93.3226   13.0742 C.ar    1  UNL1       -0.0073
      7 C          66.4385   94.1981   11.8905 C.ar    1  UNL1       -0.0015
      8 C          65.8328   93.8778   10.5561 C.ar    1  UNL1        0.0203
      9 C          64.9398   92.6820   10.4054 C.ar    1  UNL1        0.0985
     10 N          64.6526   91.8065   11.5890 N.ar    1  UNL1       -0.2471
     11 C          65.2583   92.1268   12.9234 C.ar    1  UNL1        0.0695
     12 C          64.5280   88.7154   14.4581 C.3     1  UNL1        0.0725
     13 C          63.9259   88.1410   15.7061 C.3     1  UNL1        0.0187
     14 C          64.6309   86.4358   14.6597 C.3     1  UNL1        0.0014
     15 C          63.7107   86.6611   15.8226 C.3     1  UNL1        0.0158
     16 C          62.7905   86.8865   16.9855 C.3     1  UNL1        0.0014
     17 C          63.4955   85.1813   15.9391 C.3     1  UNL1        0.0685
     18 N          62.2791   84.5499   15.3294 N.3     1  UNL1       -0.2985
     19 H          61.7275   85.3056   14.9230 H       1  UNL1        0.1232
     20 C          62.4306   83.5037   14.2651 C.3     1  UNL1        0.0543
     21 C          62.2554   82.0541   14.6082 C.3     1  UNL1        0.0213
     22 C          62.4070   81.0078   13.5439 C.3     1  UNL1        0.0679
     23 C          62.7337   81.4114   12.1366 C.3     1  UNL1        0.2640
     24 F          63.0361   81.2978   10.6719 F       1  UNL1       -0.2043
     25 F          62.6636   79.9222   11.9710 F       1  UNL1       -0.2043
     26 C          62.9089   82.8612   11.7936 C.3     1  UNL1        0.0679
     27 C          62.7574   83.9073   12.8579 C.3     1  UNL1        0.0213
     28 C          62.7352   90.1997   13.3038 C.3     1  UNL1        0.0886
     29 C          62.3214   89.2479   12.2208 C.3     1  UNL1        0.0748
     30 C          61.4106   89.7112   11.1228 C.3     1  UNL1        0.0432
     31 C          60.9968   88.7593   10.0398 C.ar    1  UNL1       -0.0234
     32 C          60.0860   89.2227    8.9418 C.ar    1  UNL1       -0.0045
     33 C          59.6722   88.2708    7.8588 C.ar    1  UNL1       -0.0003
     34 C          60.1693   86.8557    7.8739 C.ar    1  UNL1       -0.0003
     35 C          61.0801   86.3923    8.9719 C.ar    1  UNL1       -0.0032
     36 C          61.4939   87.3442   10.0549 C.ar    1  UNL1       -0.0103
     37 C          62.4047   86.8809   11.1530 C.3     1  UNL1        0.0953
     38 N          62.8185   87.8327   12.2359 N.3     1  UNL1       -0.2934
     39 H          63.8372   87.8782   12.2145 H       1  UNL1        0.1236
@<TRIPOS>BOND
     1    14    15    1
     2    15    16    1
     3    15    13    1
     4    13    12    1
     5    12     1    1
     6     1    28    1
     7    29    28    1
     8    29    30    1
     9    30    31    1
    10    31    32   ar
    11    32    33   ar
    12    33    34   ar
    13    34    35   ar
    14    35    36   ar
    15    36    37    1
    16    37    38    1
    17     2     1    1
    18     2     3    1
    19     3     4    1
    20     4     5    1
    21     5     6    1
    22     6     7   ar
    23     7     8   ar
    24     8     9   ar
    25     9    10   ar
    26    10    11   ar
    27    15    17    1
    28    17    18    1
    29    18    20    1
    30    20    21    1
    31    21    22    1
    32    22    23    1
    33    23    24    1
    34    23    25    1
    35    23    26    1
    36    26    27    1
    37    38    29    1
    38    11     2    1
    39    27    20    1
    40    36    31   ar
    41    11     6   ar
    42    38    39    1
    43    18    19    1
@<TRIPOS>MOLECULE
*****
 39 43 0 0 0
SMALL
GASTEIGER

@<TRIPOS>ATOM
      1 N          65.3073   92.2975   12.0891 N.3     1  UNL1       -0.2679
      2 C          66.3653   92.6912   11.1014 C.3     1  UNL1        0.0978
      3 C          67.4151   91.7010   10.6923 C.3     1  UNL1        0.0224
      4 C          68.4732   92.0946    9.7046 C.3     1  UNL1        0.0065
      5 C          68.4815   93.4785    9.1261 C.3     1  UNL1        0.0277
      6 C          67.4318   94.4688    9.5353 C.ar    1  UNL1       -0.0073
      7 C          67.4401   95.8527    8.9567 C.ar    1  UNL1       -0.0015
      8 C          66.3903   96.8430    9.3659 C.ar    1  UNL1        0.0203
      9 C          65.3322   96.4493   10.3535 C.ar    1  UNL1        0.0985
     10 N          65.3239   95.0654   10.9320 N.ar    1  UNL1       -0.2471
     11 C          66.3737   94.0751   10.5229 C.ar    1  UNL1        0.0695
     12 C          63.9200   91.9797   11.6153 C.3     1  UNL1        0.0725
     13 C          63.5440   90.5641   11.2914 C.3     1  UNL1        0.0187
     14 C          62.2167   90.6773    9.6405 C.3     1  UNL1        0.0014
     15 C          62.1064   90.2043   11.0597 C.3     1  UNL1        0.0158
     16 C          61.9961   89.7312   12.4788 C.3     1  UNL1        0.0014
     17 C          60.6688   89.8444   10.8280 C.3     1  UNL1        0.0685
     18 N          60.2369   88.4089   10.8818 N.3     1  UNL1       -0.2985
     19 H          59.2179   88.4061   10.8356 H       1  UNL1        0.1232
     20 C          60.7201   87.4409    9.8427 C.3     1  UNL1        0.0543
     21 C          62.1191   86.9043    9.9105 C.3     1  UNL1        0.0213
     22 C          62.6023   85.9362    8.8715 C.3     1  UNL1        0.0679
     23 C          61.6864   85.5049    7.7647 C.3     1  UNL1        0.2640
     24 F          61.1974   84.8024    6.5329 F       1  UNL1       -0.2043
     25 F          62.9157   84.7243    7.4047 F       1  UNL1       -0.2043
     26 C          60.2873   86.0415    7.6969 C.3     1  UNL1        0.0679
     27 C          59.8042   87.0095    8.7359 C.3     1  UNL1        0.0213
     28 C          65.6364   92.2217   13.5505 C.3     1  UNL1        0.0886
     29 C          64.9377   91.2238   14.4259 C.3     1  UNL1        0.0748
     30 C          65.1078   89.7552   14.1727 C.3     1  UNL1        0.0432
     31 C          64.4091   88.7574   15.0481 C.ar    1  UNL1       -0.0234
     32 C          64.5792   87.2887   14.7950 C.ar    1  UNL1       -0.0045
     33 C          63.8806   86.2910   15.6703 C.ar    1  UNL1       -0.0003
     34 C          63.0118   86.7618   16.7989 C.ar    1  UNL1       -0.0003
     35 C          62.8418   88.2305   17.0520 C.ar    1  UNL1       -0.0032
     36 C          63.5404   89.2282   16.1767 C.ar    1  UNL1       -0.0103
     37 C          63.3703   90.6969   16.4298 C.3     1  UNL1        0.0953
     38 N          64.0690   91.6947   15.5545 N.3     1  UNL1       -0.2934
     39 H          64.6597   92.2593   16.1649 H       1  UNL1        0.1236
@<TRIPOS>BOND
     1    14    15    1
     2    15    16    1
     3    15    13    1
     4    13    12    1
     5    12     1    1
     6     1    28    1
     7    29    28    1
     8    29    30    1
     9    30    31    1
    10    31    32   ar
    11    32    33   ar
    12    33    34   ar
    13    34    35   ar
    14    35    36   ar
    15    36    37    1
    16    37    38    1
    17     2     1    1
    18     2     3    1
    19     3     4    1
    20     4     5    1
    21     5     6    1
    22     6     7   ar
    23     7     8   ar
    24     8     9   ar
    25     9    10   ar
    26    10    11   ar
    27    15    17    1
    28    17    18    1
    29    18    20    1
    30    20    21    1
    31    21    22    1
    32    22    23    1
    33    23    24    1
    34    23    25    1
    35    23    26    1
    36    26    27    1
    37    38    29    1
    38    11     2    1
    39    27    20    1
    40    36    31   ar
    41    11     6   ar
    42    38    39    1
    43    18    19    1
@<TRIPOS>MOLECULE
*****
 39 43 0 0 0
SMALL
GASTEIGER

@<TRIPOS>ATOM
      1 N          64.0467   90.3334   13.4521 N.3     1  UNL1       -0.2679
      2 C          64.8322   91.5258   12.9924 C.3     1  UNL1        0.0978
      3 C          64.6738   92.0327   11.5896 C.3     1  UNL1        0.0224
      4 C          65.4593   93.2251   11.1299 C.3     1  UNL1        0.0065
      5 C          66.4030   93.9106   12.0730 C.3     1  UNL1        0.0277
      6 C          66.5613   93.4036   13.4758 C.ar    1  UNL1       -0.0073
      7 C          67.5050   94.0891   14.4190 C.ar    1  UNL1       -0.0015
      8 C          67.6633   93.5822   15.8218 C.ar    1  UNL1        0.0203
      9 C          66.8779   92.3898   16.2815 C.ar    1  UNL1        0.0985
     10 N          65.9342   91.7043   15.3384 N.ar    1  UNL1       -0.2471
     11 C          65.7759   92.2112   13.9355 C.ar    1  UNL1        0.0695
     12 C          63.1520   89.6087   12.4908 C.3     1  UNL1        0.0725
     13 C          61.7744   90.1310   12.2089 C.3     1  UNL1        0.0187
     14 C          59.7828   89.5099   11.8244 C.3     1  UNL1        0.0014
     15 C          61.0260   89.6577   10.9982 C.3     1  UNL1        0.0158
     16 C          62.2691   89.8055   10.1720 C.3     1  UNL1        0.0014
     17 C          60.2776   89.1845    9.7875 C.3     1  UNL1        0.0685
     18 N          59.9073   87.7371    9.6530 N.3     1  UNL1       -0.2985
     19 H          59.4413   87.6350    8.7514 H       1  UNL1        0.1232
     20 C          60.9718   86.6820    9.7122 C.3     1  UNL1        0.0543
     21 C          61.3192   86.0398   11.0225 C.3     1  UNL1        0.0213
     22 C          62.3838   84.9846   11.0818 C.3     1  UNL1        0.0679
     23 C          63.1009   84.5717    9.8307 C.3     1  UNL1        0.2640
     24 F          64.0536   83.8486    8.9255 F       1  UNL1       -0.2043
     25 F          63.7791   83.6784   10.8266 F       1  UNL1       -0.2043
     26 C          62.7535   85.2139    8.5203 C.3     1  UNL1        0.0679
     27 C          61.6890   86.2690    8.4611 C.3     1  UNL1        0.0213
     28 C          64.1561   89.8657   14.8731 C.3     1  UNL1        0.0886
     29 C          63.8867   88.4297   15.2129 C.3     1  UNL1        0.0748
     30 C          64.3785   87.3397   14.3073 C.3     1  UNL1        0.0432
     31 C          64.1091   85.9037   14.6472 C.ar    1  UNL1       -0.0234
     32 C          64.6009   84.8137   13.7416 C.ar    1  UNL1       -0.0045
     33 C          64.3315   83.3778   14.0815 C.ar    1  UNL1       -0.0003
     34 C          63.5704   83.0319   15.3269 C.ar    1  UNL1       -0.0003
     35 C          63.0786   84.1219   16.2324 C.ar    1  UNL1       -0.0032
     36 C          63.3480   85.5578   15.8926 C.ar    1  UNL1       -0.0103
     37 C          62.8562   86.6478   16.7981 C.3     1  UNL1        0.0953
     38 N          63.1256   88.0838   16.4583 N.3     1  UNL1       -0.2934
     39 H          63.6466   88.4789   17.2411 H       1  UNL1        0.1236
@<TRIPOS>BOND
     1    14    15    1
     2    15    16    1
     3    15    13    1
     4    13    12    1
     5    12     1    1
     6     1    28    1
     7    29    28    1
     8    29    30    1
     9    30    31    1
    10    31    32   ar
    11    32    33   ar
    12    33    34   ar
    13    34    35   ar
    14    35    36   ar
    15    36    37    1
    16    37    38    1
    17     2     1    1
    18     2     3    1
    19     3     4    1
    20     4     5    1
    21     5     6    1
    22     6     7   ar
    23     7     8   ar
    24     8     9   ar
    25     9    10   ar
    26    10    11   ar
    27    15    17    1
    28    17    18    1
    29    18    20    1
    30    20    21    1
    31    21    22    1
    32    22    23    1
    33    23    24    1
    34    23    25    1
    35    23    26    1
    36    26    27    1
    37    38    29    1
    38    11     2    1
    39    27    20    1
    40    36    31   ar
    41    11     6   ar
    42    38    39    1
    43    18    19    1
@<TRIPOS>MOLECULE
*****
 39 43 0 0 0
SMALL
GASTEIGER

@<TRIPOS>ATOM
      1 N          64.2718   89.9929   13.5033 N.3     1  UNL1       -0.2679
      2 C          65.0595   91.2220   13.8483 C.3     1  UNL1        0.0978
      3 C          65.5194   91.4468   15.2582 C.3     1  UNL1        0.0224
      4 C          66.3071   92.6758   15.6032 C.3     1  UNL1        0.0065
      5 C          66.6348   93.6801   14.5383 C.3     1  UNL1        0.0277
      6 C          66.1749   93.4552   13.1284 C.ar    1  UNL1       -0.0073
      7 C          66.5026   94.4595   12.0634 C.ar    1  UNL1       -0.0015
      8 C          66.0427   94.2347   10.6535 C.ar    1  UNL1        0.0203
      9 C          65.2550   93.0056   10.3085 C.ar    1  UNL1        0.0985
     10 N          64.9273   92.0014   11.3734 N.ar    1  UNL1       -0.2471
     11 C          65.3872   92.2262   12.7834 C.ar    1  UNL1        0.0695
     12 C          63.4670   89.9485   12.2383 C.3     1  UNL1        0.0725
     13 C          62.0490   90.4378   12.2339 C.3     1  UNL1        0.0187
     14 C          60.0707   89.6788   12.1335 C.3     1  UNL1        0.0014
     15 C          61.1212   90.0384   11.1250 C.3     1  UNL1        0.0158
     16 C          62.1717   90.3981   10.1166 C.3     1  UNL1        0.0014
     17 C          60.1934   89.6391   10.0161 C.3     1  UNL1        0.0685
     18 N          59.6707   88.2349    9.9446 N.3     1  UNL1       -0.2985
     19 H          58.7034   88.2966    9.6269 H       1  UNL1        0.1232
     20 C          60.3508   87.2252    9.0683 C.3     1  UNL1        0.0543
     21 C          59.5786   86.5293    7.9870 C.3     1  UNL1        0.0213
     22 C          60.2587   85.5195    7.1106 C.3     1  UNL1        0.0679
     23 C          61.7111   85.2057    7.3157 C.3     1  UNL1        0.2640
     24 F          63.0576   84.5740    7.1219 F       1  UNL1       -0.2043
     25 F          61.4065   84.2904    6.1670 F       1  UNL1       -0.2043
     26 C          62.4833   85.9016    8.3972 C.3     1  UNL1        0.0679
     27 C          61.8032   86.9113    9.2734 C.3     1  UNL1        0.0213
     28 C          64.2889   88.8083   14.4233 C.3     1  UNL1        0.0886
     29 C          63.9080   87.4523   13.9073 C.3     1  UNL1        0.0748
     30 C          64.2653   86.2241   14.6907 C.3     1  UNL1        0.0432
     31 C          63.8843   84.8681   14.1747 C.ar    1  UNL1       -0.0234
     32 C          64.2416   83.6400   14.9581 C.ar    1  UNL1       -0.0045
     33 C          63.8606   82.2841   14.4421 C.ar    1  UNL1       -0.0003
     34 C          63.1223   82.1563   13.1426 C.ar    1  UNL1       -0.0003
     35 C          62.7651   83.3845   12.3592 C.ar    1  UNL1       -0.0032
     36 C          63.1460   84.7404   12.8752 C.ar    1  UNL1       -0.0103
     37 C          62.7888   85.9687   12.0917 C.3     1  UNL1        0.0953
     38 N          63.1697   87.3246   12.6078 N.3     1  UNL1       -0.2934
     39 H          62.3045   87.8556   12.7072 H       1  UNL1        0.1236
@<TRIPOS>BOND
     1    14    15    1
     2    15    16    1
     3    15    13    1
     4    13    12    1
     5    12     1    1
     6     1    28    1
     7    29    28    1
     8    29    30    1
     9    30    31    1
    10    31    32   ar
    11    32    33   ar
    12    33    34   ar
    13    34    35   ar
    14    35    36   ar
    15    36    37    1
    16    37    38    1
    17     2     1    1
    18     2     3    1
    19     3     4    1
    20     4     5    1
    21     5     6    1
    22     6     7   ar
    23     7     8   ar
    24     8     9   ar
    25     9    10   ar
    26    10    11   ar
    27    15    17    1
    28    17    18    1
    29    18    20    1
    30    20    21    1
    31    21    22    1
    32    22    23    1
    33    23    24    1
    34    23    25    1
    35    23    26    1
    36    26    27    1
    37    38    29    1
    38    11     2    1
    39    27    20    1
    40    36    31   ar
    41    11     6   ar
    42    38    39    1
    43    18    19    1
@<TRIPOS>MOLECULE
*****
 39 43 0 0 0
SMALL
GASTEIGER

@<TRIPOS>ATOM
      1 N          64.0815   90.4680   14.3161 N.3     1  UNL1       -0.2679
      2 C          65.0890   91.5792   14.3183 C.3     1  UNL1        0.0978
      3 C          65.8123   91.9334   15.5837 C.3     1  UNL1        0.0224
      4 C          66.8198   93.0447   15.5859 C.3     1  UNL1        0.0065
      5 C          67.1041   93.8018   14.3225 C.3     1  UNL1        0.0277
      6 C          66.3808   93.4475   13.0571 C.ar    1  UNL1       -0.0073
      7 C          66.6651   94.2046   11.7937 C.ar    1  UNL1       -0.0015
      8 C          65.9419   93.8504   10.5282 C.ar    1  UNL1        0.0203
      9 C          64.9344   92.7391   10.5261 C.ar    1  UNL1        0.0985
     10 N          64.6501   91.9821   11.7894 N.ar    1  UNL1       -0.2471
     11 C          65.3733   92.3363   13.0549 C.ar    1  UNL1        0.0695
     12 C          63.5171   89.9698   13.0188 C.3     1  UNL1        0.0725
     13 C          62.0386   90.0281   12.7725 C.3     1  UNL1        0.0187
     14 C          60.0952   89.6617   12.0050 C.3     1  UNL1        0.0014
     15 C          61.4838   89.6227   11.4391 C.3     1  UNL1        0.0158
     16 C          62.8724   89.5836   10.8732 C.3     1  UNL1        0.0014
     17 C          60.9290   89.2172   10.1058 C.3     1  UNL1        0.0685
     18 N          60.4054   87.8263    9.9029 N.3     1  UNL1       -0.2985
     19 H          59.9792   87.8043    8.9764 H       1  UNL1        0.1232
     20 C          61.3395   86.6550    9.9777 C.3     1  UNL1        0.0543
     21 C          62.0999   86.2231    8.7590 C.3     1  UNL1        0.0213
     22 C          63.0341   85.0518    8.8338 C.3     1  UNL1        0.0679
     23 C          63.2077   84.3124   10.1273 C.3     1  UNL1        0.2640
     24 F          63.7054   83.3010   11.1168 F       1  UNL1       -0.2043
     25 F          64.1410   83.5292    9.2522 F       1  UNL1       -0.2043
     26 C          62.4472   84.7443   11.3460 C.3     1  UNL1        0.0679
     27 C          61.5132   85.9156   11.2711 C.3     1  UNL1        0.0213
     28 C          63.6384   89.8548   15.6114 C.3     1  UNL1        0.0886
     29 C          63.5207   88.3644   15.7342 C.3     1  UNL1        0.0748
     30 C          64.2529   87.4728   14.7757 C.3     1  UNL1        0.0432
     31 C          64.1352   85.9824   14.8985 C.ar    1  UNL1       -0.0234
     32 C          64.8674   85.0907   13.9401 C.ar    1  UNL1       -0.0045
     33 C          64.7496   83.6004   14.0629 C.ar    1  UNL1       -0.0003
     34 C          63.8996   83.0018   15.1442 C.ar    1  UNL1       -0.0003
     35 C          63.1674   83.8935   16.1026 C.ar    1  UNL1       -0.0032
     36 C          63.2852   85.3838   15.9798 C.ar    1  UNL1       -0.0103
     37 C          62.5529   86.2756   16.9383 C.3     1  UNL1        0.0953
     38 N          62.6707   87.7659   16.8155 N.3     1  UNL1       -0.2934
     39 H          63.0406   88.1061   17.7031 H       1  UNL1        0.1236
@<TRIPOS>BOND
     1    14    15    1
     2    15    16    1
     3    15    13    1
     4    13    12    1
     5    12     1    1
     6     1    28    1
     7    29    28    1
     8    29    30    1
     9    30    31    1
    10    31    32   ar
    11    32    33   ar
    12    33    34   ar
    13    34    35   ar
    14    35    36   ar
    15    36    37    1
    16    37    38    1
    17     2     1    1
    18     2     3    1
    19     3     4    1
    20     4     5    1
    21     5     6    1
    22     6     7   ar
    23     7     8   ar
    24     8     9   ar
    25     9    10   ar
    26    10    11   ar
    27    15    17    1
    28    17    18    1
    29    18    20    1
    30    20    21    1
    31    21    22    1
    32    22    23    1
    33    23    24    1
    34    23    25    1
    35    23    26    1
    36    26    27    1
    37    38    29    1
    38    11     2    1
    39    27    20    1
    40    36    31   ar
    41    11     6   ar
    42    38    39    1
    43    18    19    1
@<TRIPOS>MOLECULE
*****
 39 43 0 0 0
SMALL
GASTEIGER

@<TRIPOS>ATOM
      1 N          64.1770   88.6065   14.1101 N.3     1  UNL1       -0.2679
      2 C          64.2644   89.8191   14.9888 C.3     1  UNL1        0.0978
      3 C          63.3583   89.9514   16.1768 C.3     1  UNL1        0.0224
      4 C          63.4457   91.1640   17.0554 C.3     1  UNL1        0.0065
      5 C          64.4392   92.2443   16.7460 C.3     1  UNL1        0.0277
      6 C          65.3454   92.1120   15.5580 C.ar    1  UNL1       -0.0073
      7 C          66.3390   93.1923   15.2486 C.ar    1  UNL1       -0.0015
      8 C          67.2451   93.0600   14.0606 C.ar    1  UNL1        0.0203
      9 C          67.1577   91.8474   13.1820 C.ar    1  UNL1        0.0985
     10 N          66.1642   90.7671   13.4913 N.ar    1  UNL1       -0.2471
     11 C          65.2580   90.8994   14.6794 C.ar    1  UNL1        0.0695
     12 C          63.4237   88.6717   12.8147 C.3     1  UNL1        0.0725
     13 C          62.6837   89.9214   12.4394 C.3     1  UNL1        0.0187
     14 C          60.6186   89.4960   12.2073 C.3     1  UNL1        0.0014
     15 C          61.7268   89.9082   11.2844 C.3     1  UNL1        0.0158
     16 C          62.8351   90.3204   10.3615 C.3     1  UNL1        0.0014
     17 C          60.7700   89.8951   10.1294 C.3     1  UNL1        0.0685
     18 N          59.9665   88.6630    9.8350 N.3     1  UNL1       -0.2985
     19 H          59.1511   88.9638    9.3011 H       1  UNL1        0.1232
     20 C          60.5862   87.5272    9.0760 C.3     1  UNL1        0.0543
     21 C          59.8405   86.8871    7.9429 C.3     1  UNL1        0.0213
     22 C          60.4601   85.7512    7.1839 C.3     1  UNL1        0.0679
     23 C          61.8255   85.2555    7.5581 C.3     1  UNL1        0.2640
     24 F          63.0836   84.4391    7.5362 F       1  UNL1       -0.2043
     25 F          61.5167   84.3319    6.4173 F       1  UNL1       -0.2043
     26 C          62.5712   85.8957    8.6914 C.3     1  UNL1        0.0679
     27 C          61.9516   87.0315    9.4503 C.3     1  UNL1        0.0213
     28 C          64.8429   87.3287   14.5270 C.3     1  UNL1        0.0886
     29 C          64.0757   86.0399   14.5006 C.3     1  UNL1        0.0748
     30 C          64.1448   85.1505   13.2948 C.3     1  UNL1        0.0432
     31 C          63.3777   83.8617   13.2684 C.ar    1  UNL1       -0.0234
     32 C          63.4467   82.9723   12.0626 C.ar    1  UNL1       -0.0045
     33 C          62.6796   81.6836   12.0363 C.ar    1  UNL1       -0.0003
     34 C          61.8435   81.2843   13.2159 C.ar    1  UNL1       -0.0003
     35 C          61.7744   82.1737   14.4217 C.ar    1  UNL1       -0.0032
     36 C          62.5415   83.4624   14.4480 C.ar    1  UNL1       -0.0103
     37 C          62.4725   84.3519   15.6539 C.3     1  UNL1        0.0953
     38 N          63.2396   85.6406   15.6802 N.3     1  UNL1       -0.2934
     39 H          63.8667   85.5936   16.4833 H       1  UNL1        0.1236
@<TRIPOS>BOND
     1    14    15    1
     2    15    16    1
     3    15    13    1
     4    13    12    1
     5    12     1    1
     6     1    28    1
     7    29    28    1
     8    29    30    1
     9    30    31    1
    10    31    32   ar
    11    32    33   ar
    12    33    34   ar
    13    34    35   ar
    14    35    36   ar
    15    36    37    1
    16    37    38    1
    17     2     1    1
    18     2     3    1
    19     3     4    1
    20     4     5    1
    21     5     6    1
    22     6     7   ar
    23     7     8   ar
    24     8     9   ar
    25     9    10   ar
    26    10    11   ar
    27    15    17    1
    28    17    18    1
    29    18    20    1
    30    20    21    1
    31    21    22    1
    32    22    23    1
    33    23    24    1
    34    23    25    1
    35    23    26    1
    36    26    27    1
    37    38    29    1
    38    11     2    1
    39    27    20    1
    40    36    31   ar
    41    11     6   ar
    42    38    39    1
    43    18    19    1
@<TRIPOS>MOLECULE
*****
 39 43 0 0 0
SMALL
GASTEIGER

@<TRIPOS>ATOM
      1 N          62.8688   90.3639   11.8046 N.3     1  UNL1       -0.2679
      2 C          63.9900   91.3598   11.8371 C.3     1  UNL1        0.0978
      3 C          64.4806   91.9788   10.5620 C.3     1  UNL1        0.0224
      4 C          65.6019   92.9746   10.5945 C.3     1  UNL1        0.0065
      5 C          66.2325   93.3515   11.9022 C.3     1  UNL1        0.0277
      6 C          65.7420   92.7325   13.1774 C.ar    1  UNL1       -0.0073
      7 C          66.3726   93.1093   14.4852 C.ar    1  UNL1       -0.0015
      8 C          65.8820   92.4903   15.7604 C.ar    1  UNL1        0.0203
      9 C          64.7608   91.4945   15.7279 C.ar    1  UNL1        0.0985
     10 N          64.1301   91.1176   14.4201 N.ar    1  UNL1       -0.2471
     11 C          64.6207   91.7366   13.1449 C.ar    1  UNL1        0.0695
     12 C          61.4814   90.7837   12.1903 C.3     1  UNL1        0.0725
     13 C          60.3664   90.6971   11.1906 C.3     1  UNL1        0.0187
     14 C          59.4622   88.9711   12.0292 C.3     1  UNL1        0.0014
     15 C          59.9363   89.3614   10.6607 C.3     1  UNL1        0.0158
     16 C          60.4103   89.7516    9.2922 C.3     1  UNL1        0.0014
     17 C          59.5062   88.0256   10.1308 C.3     1  UNL1        0.0685
     18 N          60.4104   86.8370   10.2701 N.3     1  UNL1       -0.2985
     19 H          59.8916   86.1321   10.7940 H       1  UNL1        0.1232
     20 C          60.9496   86.1573    9.0464 C.3     1  UNL1        0.0543
     21 C          62.3976   85.7715    8.9793 C.3     1  UNL1        0.0213
     22 C          62.9367   85.0918    7.7556 C.3     1  UNL1        0.0679
     23 C          62.0279   84.7979    6.5990 C.3     1  UNL1        0.2640
     24 F          61.5662   84.3114    5.2574 F       1  UNL1       -0.2043
     25 F          63.3156   84.2432    6.0660 F       1  UNL1       -0.2043
     26 C          60.5798   85.1837    6.6662 C.3     1  UNL1        0.0679
     27 C          60.0407   85.8634    7.8899 C.3     1  UNL1        0.0213
     28 C          63.1350   88.9482   11.3863 C.3     1  UNL1        0.0886
     29 C          63.3915   87.8953   12.4235 C.3     1  UNL1        0.0748
     30 C          63.0540   86.4622   12.1368 C.3     1  UNL1        0.0432
     31 C          63.3105   85.4093   13.1740 C.ar    1  UNL1       -0.0234
     32 C          62.9730   83.9762   12.8873 C.ar    1  UNL1       -0.0045
     33 C          63.2295   82.9234   13.9244 C.ar    1  UNL1       -0.0003
     34 C          63.8235   83.3037   15.2483 C.ar    1  UNL1       -0.0003
     35 C          64.1610   84.7368   15.5350 C.ar    1  UNL1       -0.0032
     36 C          63.9045   85.7896   14.4978 C.ar    1  UNL1       -0.0103
     37 C          64.2420   87.2228   14.7845 C.3     1  UNL1        0.0953
     38 N          63.9855   88.2756   13.7473 N.3     1  UNL1       -0.2934
     39 H          64.8823   88.7201   13.5509 H       1  UNL1        0.1236
@<TRIPOS>BOND
     1    14    15    1
     2    15    16    1
     3    15    13    1
     4    13    12    1
     5    12     1    1
     6     1    28    1
     7    29    28    1
     8    29    30    1
     9    30    31    1
    10    31    32   ar
    11    32    33   ar
    12    33    34   ar
    13    34    35   ar
    14    35    36   ar
    15    36    37    1
    16    37    38    1
    17     2     1    1
    18     2     3    1
    19     3     4    1
    20     4     5    1
    21     5     6    1
    22     6     7   ar
    23     7     8   ar
    24     8     9   ar
    25     9    10   ar
    26    10    11   ar
    27    15    17    1
    28    17    18    1
    29    18    20    1
    30    20    21    1
    31    21    22    1
    32    22    23    1
    33    23    24    1
    34    23    25    1
    35    23    26    1
    36    26    27    1
    37    38    29    1
    38    11     2    1
    39    27    20    1
    40    36    31   ar
    41    11     6   ar
    42    38    39    1
    43    18    19    1
