@<TRIPOS>MOLECULE
*****
 39 44 0 0 0
SMALL
GASTEIGER

@<TRIPOS>ATOM
      1 C          64.0742   89.7832   15.8823 C.ar    1  UNL1        0.1667
      2 N          63.1953   89.1004   16.8879 N.ar    1  UNL1       -0.2239
      3 C          63.1524   87.6395   16.5500 C.ar    1  UNL1        0.0893
      4 C          62.4473   86.4813   17.1913 C.ar    1  UNL1        0.0202
      5 C          62.5945   85.1031   16.6180 C.ar    1  UNL1        0.0081
      6 C          63.4469   84.8830   15.4035 C.ar    1  UNL1        0.0329
      7 C          64.1521   86.0412   14.7623 C.ar    1  UNL1        0.0146
      8 C          64.0048   87.4195   15.3355 C.ar    1  UNL1        0.0502
      9 S          64.5745   88.7443   14.9229 S.2     1  UNL1       -0.0513
     10 O          66.0337   90.8346   13.8686 O.2     1  UNL1       -0.2524
     11 C          65.3760   91.7734   14.8362 C.2     1  UNL1        0.3059
     12 N          65.6981   93.2379   14.7969 N.am    1  UNL1       -0.2872
     13 N          64.3963   91.2477   15.8430 N.am    1  UNL1       -0.2485
     14 H          65.2665   93.8540   15.4320 H       1  UNL1        0.1510
     15 H          63.9647   91.8638   16.4781 H       1  UNL1        0.1583
     16 C          66.6779   93.7636   13.7900 C.3     1  UNL1        0.1082
     17 C          66.1911   94.2787   12.4680 C.3     1  UNL1        0.0938
     18 N          66.8922   93.8797   11.2034 N.3     1  UNL1       -0.2670
     19 C          67.1145   94.8909   10.1180 C.3     1  UNL1        0.1047
     20 C          67.8155   94.4918    8.8534 C.3     1  UNL1        0.1595
     21 O          68.2943   93.0816    8.6741 O.3     1  UNL1       -0.3508
     22 C          68.0720   92.0705    9.7595 C.3     1  UNL1        0.1595
     23 C          67.3709   92.4695   11.0242 C.3     1  UNL1        0.1047
     24 S          63.5942   83.5047   14.8303 S.3     1  UNL1       -0.0470
     25 C          63.7813   83.3227   13.3532 C.ar    1  UNL1        0.2172
     26 N          64.5430   82.2131   12.6910 N.ar    1  UNL1       -0.1200
     27 N          64.4720   82.4230   11.2075 N.ar    1  UNL1       -0.1264
     28 C          63.6663   83.6625   10.9528 C.ar    1  UNL1        0.1874
     29 C          63.2663   84.3566    9.6847 C.ar    1  UNL1        0.0455
     30 C          62.4394   85.6068    9.7426 C.ar    1  UNL1        0.0624
     31 C          62.0125   86.1628   11.0688 C.ar    1  UNL1        0.2423
     32 N          62.4126   85.4687   12.3369 N.ar    1  UNL1       -0.1242
     33 N          63.2395   84.2185   12.2790 N.ar    1  UNL1       -0.1830
     34 O          61.1857   87.4129   11.1268 O.3     1  UNL1       -0.4631
     35 C          61.8468   88.7551   11.0196 C.3     1  UNL1        0.1676
     36 C          61.6542   89.7468    9.9109 C.3     1  UNL1        0.0436
     37 C          62.5050   90.9458   10.2085 C.3     1  UNL1        0.0038
     38 C          63.2234   90.6952   11.5011 C.3     1  UNL1        0.0038
     39 C          62.8166   89.3412   12.0025 C.3     1  UNL1        0.0436
@<TRIPOS>BOND
     1    10    11    2
     2    11    12   am
     3    12    16    1
     4    16    17    1
     5    17    18    1
     6    18    19    1
     7    19    20    1
     8    20    21    1
     9    21    22    1
    10    22    23    1
    11    11    13   am
    12    13     1    1
    13     1     2   ar
    14     2     3   ar
    15     3     4   ar
    16     4     5   ar
    17     5     6   ar
    18     6    24    1
    19    24    25    1
    20    25    26   ar
    21    26    27   ar
    22    27    28   ar
    23    28    29   ar
    24    29    30   ar
    25    30    31   ar
    26    31    34    1
    27    34    35    1
    28    35    36    1
    29    36    37    1
    30    37    38    1
    31    38    39    1
    32    31    32   ar
    33    32    33   ar
    34     6     7   ar
    35     7     8   ar
    36     8     9   ar
    37    23    18    1
    38     9     1   ar
    39     8     3   ar
    40    33    25   ar
    41    33    28   ar
    42    39    35    1
    43    12    14    1
    44    13    15    1
@<TRIPOS>MOLECULE
*****
 39 44 0 0 0
SMALL
GASTEIGER

@<TRIPOS>ATOM
      1 C          60.9000   86.1035    8.9022 C.ar    1  UNL1        0.1667
      2 N          61.9867   85.1355    8.5387 N.ar    1  UNL1       -0.2239
      3 C          62.7137   84.7612    9.7963 C.ar    1  UNL1        0.0893
      4 C          63.8737   83.8447   10.0500 C.ar    1  UNL1        0.0202
      5 C          64.3964   83.6649   11.4444 C.ar    1  UNL1        0.0081
      6 C          63.7590   84.4016   12.5851 C.ar    1  UNL1        0.0329
      7 C          62.5990   85.3180   12.3313 C.ar    1  UNL1        0.0146
      8 C          62.0763   85.4978   10.9369 C.ar    1  UNL1        0.0502
      9 S          60.9554   86.3274   10.3843 S.2     1  UNL1       -0.0513
     10 O          60.7968   89.0892    8.6289 O.2     1  UNL1       -0.2524
     11 C          59.8769   88.2292    7.8139 C.2     1  UNL1        0.3059
     12 N          58.9054   88.8621    6.8623 N.am    1  UNL1       -0.2872
     13 N          59.9285   86.7364    7.9506 N.am    1  UNL1       -0.2485
     14 H          58.3016   88.2977    6.3274 H       1  UNL1        0.1510
     15 H          59.3247   86.1720    7.4157 H       1  UNL1        0.1583
     16 C          58.8538   90.3551    6.7257 C.3     1  UNL1        0.1082
     17 C          58.5081   90.9758    5.4046 C.3     1  UNL1        0.0938
     18 N          59.5941   91.5188    4.5240 N.3     1  UNL1       -0.2670
     19 C          60.9967   91.0042    4.6589 C.3     1  UNL1        0.1047
     20 C          62.0827   91.5473    3.7782 C.3     1  UNL1        0.1595
     21 O          61.7663   92.6048    2.7626 O.3     1  UNL1       -0.3508
     22 C          60.3638   93.1194    2.6277 C.3     1  UNL1        0.1595
     23 C          59.2777   92.5764    3.5084 C.3     1  UNL1        0.1047
     24 S          64.2817   84.2217   13.9796 S.3     1  UNL1       -0.0470
     25 C          63.6477   84.9623   15.1195 C.ar    1  UNL1        0.2172
     26 N          62.8647   84.3492   16.2425 N.ar    1  UNL1       -0.1200
     27 N          62.4184   85.4540   17.1537 N.ar    1  UNL1       -0.1264
     28 C          62.9256   86.7499   16.5938 C.ar    1  UNL1        0.1874
     29 C          62.7937   88.1675   17.0663 C.ar    1  UNL1        0.0455
     30 C          63.4216   89.2811   16.2817 C.ar    1  UNL1        0.0624
     31 C          64.1813   88.9772   15.0245 C.ar    1  UNL1        0.2423
     32 N          64.3131   87.5597   14.5520 N.ar    1  UNL1       -0.1242
     33 N          63.6853   86.4460   15.3366 N.ar    1  UNL1       -0.1830
     34 O          64.8092   90.0907   14.2399 O.3     1  UNL1       -0.4631
     35 C          64.2417   90.4824   12.9078 C.3     1  UNL1        0.1676
     36 C          63.1416   89.7732   12.1751 C.3     1  UNL1        0.0436
     37 C          62.8947   90.5045   10.8889 C.3     1  UNL1        0.0038
     38 C          63.8423   91.6656   10.8267 C.3     1  UNL1        0.0038
     39 C          64.6748   91.6519   12.0744 C.3     1  UNL1        0.0436
@<TRIPOS>BOND
     1    10    11    2
     2    11    12   am
     3    12    16    1
     4    16    17    1
     5    17    18    1
     6    18    19    1
     7    19    20    1
     8    20    21    1
     9    21    22    1
    10    22    23    1
    11    11    13   am
    12    13     1    1
    13     1     2   ar
    14     2     3   ar
    15     3     4   ar
    16     4     5   ar
    17     5     6   ar
    18     6    24    1
    19    24    25    1
    20    25    26   ar
    21    26    27   ar
    22    27    28   ar
    23    28    29   ar
    24    29    30   ar
    25    30    31   ar
    26    31    34    1
    27    34    35    1
    28    35    36    1
    29    36    37    1
    30    37    38    1
    31    38    39    1
    32    31    32   ar
    33    32    33   ar
    34     6     7   ar
    35     7     8   ar
    36     8     9   ar
    37    23    18    1
    38     9     1   ar
    39     8     3   ar
    40    33    25   ar
    41    33    28   ar
    42    39    35    1
    43    12    14    1
    44    13    15    1
@<TRIPOS>MOLECULE
*****
 39 44 0 0 0
SMALL
GASTEIGER

@<TRIPOS>ATOM
      1 C          63.2177   85.2749   16.0249 C.ar    1  UNL1        0.1667
      2 N          62.5129   86.3361   16.8169 N.ar    1  UNL1       -0.2239
      3 C          63.0760   87.6665   16.4134 C.ar    1  UNL1        0.0893
      4 C          62.7660   89.0646   16.8597 C.ar    1  UNL1        0.0202
      5 C          63.5090   90.2239   16.2647 C.ar    1  UNL1        0.0081
      6 C          64.5619   89.9850   15.2233 C.ar    1  UNL1        0.0329
      7 C          64.8718   88.5869   14.7770 C.ar    1  UNL1        0.0146
      8 C          64.1289   87.4277   15.3721 C.ar    1  UNL1        0.0502
      9 S          64.2164   85.9496   15.1320 S.2     1  UNL1       -0.0513
     10 O          61.9713   83.8276   13.7115 O.2     1  UNL1       -0.2524
     11 C          62.3445   83.0747   14.9542 C.2     1  UNL1        0.3059
     12 N          62.0945   81.5982   15.0400 N.am    1  UNL1       -0.2872
     13 N          62.9677   83.7984   16.1108 N.am    1  UNL1       -0.2485
     14 H          62.3394   81.1041   15.8556 H       1  UNL1        0.1510
     15 H          63.2126   83.3043   16.9263 H       1  UNL1        0.1583
     16 C          61.4713   80.8745   13.8833 C.3     1  UNL1        0.1082
     17 C          62.3287   80.3901   12.7518 C.3     1  UNL1        0.0938
     18 N          63.2275   81.3486   12.0284 N.3     1  UNL1       -0.2670
     19 C          63.0625   81.5635   10.5530 C.3     1  UNL1        0.1047
     20 C          63.9614   82.5219    9.8296 C.3     1  UNL1        0.1595
     21 O          65.0253   83.2654   10.5814 O.3     1  UNL1       -0.3508
     22 C          65.1904   83.0505   12.0567 C.3     1  UNL1        0.1595
     23 C          64.2915   82.0921   12.7802 C.3     1  UNL1        0.1047
     24 S          65.3048   91.1444   14.6283 S.3     1  UNL1       -0.0470
     25 C          64.9678   91.6217   13.2468 C.ar    1  UNL1        0.2172
     26 N          65.4828   92.8709   12.5954 N.ar    1  UNL1       -0.1200
     27 N          64.8900   92.9548   11.2201 N.ar    1  UNL1       -0.1264
     28 C          64.0086   91.7574   11.0215 C.ar    1  UNL1        0.1874
     29 C          63.1684   91.3109    9.8619 C.ar    1  UNL1        0.0455
     30 C          62.3763   90.0405    9.9547 C.ar    1  UNL1        0.0624
     31 C          62.4245   89.2165   11.2073 C.ar    1  UNL1        0.2423
     32 N          63.2646   89.6630   12.3669 N.ar    1  UNL1       -0.1242
     33 N          64.0567   90.9335   12.2740 N.ar    1  UNL1       -0.1830
     34 O          61.6325   87.9461   11.3002 O.3     1  UNL1       -0.4631
     35 C          61.3049   87.1738   10.0567 C.3     1  UNL1        0.1676
     36 C          59.9935   87.1897    9.3288 C.3     1  UNL1        0.0436
     37 C          60.1093   86.2758    8.1450 C.3     1  UNL1        0.0038
     38 C          61.4923   85.6950    8.1413 C.3     1  UNL1        0.0038
     39 C          62.2312   86.2501    9.3229 C.3     1  UNL1        0.0436
@<TRIPOS>BOND
     1    10    11    2
     2    11    12   am
     3    12    16    1
     4    16    17    1
     5    17    18    1
     6    18    19    1
     7    19    20    1
     8    20    21    1
     9    21    22    1
    10    22    23    1
    11    11    13   am
    12    13     1    1
    13     1     2   ar
    14     2     3   ar
    15     3     4   ar
    16     4     5   ar
    17     5     6   ar
    18     6    24    1
    19    24    25    1
    20    25    26   ar
    21    26    27   ar
    22    27    28   ar
    23    28    29   ar
    24    29    30   ar
    25    30    31   ar
    26    31    34    1
    27    34    35    1
    28    35    36    1
    29    36    37    1
    30    37    38    1
    31    38    39    1
    32    31    32   ar
    33    32    33   ar
    34     6     7   ar
    35     7     8   ar
    36     8     9   ar
    37    23    18    1
    38     9     1   ar
    39     8     3   ar
    40    33    25   ar
    41    33    28   ar
    42    39    35    1
    43    12    14    1
    44    13    15    1
@<TRIPOS>MOLECULE
*****
 39 44 0 0 0
SMALL
GASTEIGER

@<TRIPOS>ATOM
      1 C          59.3248   88.6440    7.6324 C.ar    1  UNL1        0.1667
      2 N          60.0898   89.1823    8.8050 N.ar    1  UNL1       -0.2239
      3 C          60.9200   88.0672    9.3683 C.ar    1  UNL1        0.0893
      4 C          61.8728   88.0110   10.5254 C.ar    1  UNL1        0.0202
      5 C          62.5737   86.7272   10.8580 C.ar    1  UNL1        0.0081
      6 C          62.3218   85.4997   10.0336 C.ar    1  UNL1        0.0329
      7 C          61.3689   85.5560    8.8764 C.ar    1  UNL1        0.0146
      8 C          60.6681   86.8397    8.5438 C.ar    1  UNL1        0.0502
      9 S          59.6822   87.1962    7.4710 S.2     1  UNL1       -0.0513
     10 O          60.3732   90.4774    5.5017 O.2     1  UNL1       -0.2524
     11 C          58.8942   90.3344    5.7070 C.2     1  UNL1        0.3059
     12 N          57.9394   91.1080    4.8468 N.am    1  UNL1       -0.2872
     13 N          58.3700   89.4177    6.7723 N.am    1  UNL1       -0.2485
     14 H          56.9687   91.0142    4.9815 H       1  UNL1        0.1510
     15 H          57.3993   89.3239    6.9069 H       1  UNL1        0.1583
     16 C          58.4637   92.0247    3.7815 C.3     1  UNL1        0.1082
     17 C          59.7582   92.7533    3.9895 C.3     1  UNL1        0.0938
     18 N          60.6989   92.9546    2.8386 N.3     1  UNL1       -0.2670
     19 C          60.2818   93.7929    1.6667 C.3     1  UNL1        0.1047
     20 C          61.2224   93.9942    0.5158 C.3     1  UNL1        0.1595
     21 O          62.5803   93.3572    0.5367 O.3     1  UNL1       -0.3508
     22 C          62.9974   92.5188    1.7085 C.3     1  UNL1        0.1595
     23 C          62.0568   92.3175    2.8595 C.3     1  UNL1        0.1047
     24 S          63.0227   84.2159   10.3663 S.3     1  UNL1       -0.0470
     25 C          62.8048   83.5664   11.7007 C.ar    1  UNL1        0.2172
     26 N          62.1486   82.2387   11.9384 N.ar    1  UNL1       -0.1200
     27 N          62.1431   81.9823   13.4163 N.ar    1  UNL1       -0.1264
     28 C          62.7959   83.1517   14.0920 C.ar    1  UNL1        0.1874
     29 C          63.0708   83.4515   15.5358 C.ar    1  UNL1        0.0455
     30 C          63.7546   84.7302   15.9193 C.ar    1  UNL1        0.0624
     31 C          64.1636   85.7093   14.8590 C.ar    1  UNL1        0.2423
     32 N          63.8887   85.4095   13.4152 N.ar    1  UNL1       -0.1242
     33 N          63.2048   84.1307   13.0316 N.ar    1  UNL1       -0.1830
     34 O          64.8473   86.9880   15.2425 O.3     1  UNL1       -0.4631
     35 C          64.2276   88.3064   14.8849 C.3     1  UNL1        0.1676
     36 C          63.6778   89.3132   15.8513 C.3     1  UNL1        0.0436
     37 C          63.1593   90.4785   15.0618 C.3     1  UNL1        0.0038
     38 C          63.3887   90.1919   13.6074 C.3     1  UNL1        0.0038
     39 C          64.0489   88.8494   13.4981 C.3     1  UNL1        0.0436
@<TRIPOS>BOND
     1    10    11    2
     2    11    12   am
     3    12    16    1
     4    16    17    1
     5    17    18    1
     6    18    19    1
     7    19    20    1
     8    20    21    1
     9    21    22    1
    10    22    23    1
    11    11    13   am
    12    13     1    1
    13     1     2   ar
    14     2     3   ar
    15     3     4   ar
    16     4     5   ar
    17     5     6   ar
    18     6    24    1
    19    24    25    1
    20    25    26   ar
    21    26    27   ar
    22    27    28   ar
    23    28    29   ar
    24    29    30   ar
    25    30    31   ar
    26    31    34    1
    27    34    35    1
    28    35    36    1
    29    36    37    1
    30    37    38    1
    31    38    39    1
    32    31    32   ar
    33    32    33   ar
    34     6     7   ar
    35     7     8   ar
    36     8     9   ar
    37    23    18    1
    38     9     1   ar
    39     8     3   ar
    40    33    25   ar
    41    33    28   ar
    42    39    35    1
    43    12    14    1
    44    13    15    1
@<TRIPOS>MOLECULE
*****
 39 44 0 0 0
SMALL
GASTEIGER

@<TRIPOS>ATOM
      1 C          60.3529   87.8403    8.8481 C.ar    1  UNL1        0.1667
      2 N          61.1809   86.9887    7.9320 N.ar    1  UNL1       -0.2239
      3 C          61.9390   86.0047    8.7729 C.ar    1  UNL1        0.0893
      4 C          62.9102   84.9185    8.4166 C.ar    1  UNL1        0.0202
      5 C          63.5220   84.0758    9.4962 C.ar    1  UNL1        0.0081
      6 C          63.1626   84.3193   10.9320 C.ar    1  UNL1        0.0329
      7 C          62.1914   85.4056   11.2883 C.ar    1  UNL1        0.0146
      8 C          61.5797   86.2482   10.2087 C.ar    1  UNL1        0.0502
      9 S          60.5994   87.3827   10.2552 S.2     1  UNL1       -0.0513
     10 O          60.2662   88.7136    5.9793 O.2     1  UNL1       -0.2524
     11 C          59.3956   89.3907    6.9961 C.2     1  UNL1        0.3059
     12 N          58.4817   90.5044    6.5785 N.am    1  UNL1       -0.2872
     13 N          59.4390   88.9540    8.4305 N.am    1  UNL1       -0.2485
     14 H          57.9103   90.9487    7.2458 H       1  UNL1        0.1510
     15 H          58.8676   89.3983    9.0978 H       1  UNL1        0.1583
     16 C          58.4383   90.9410    5.1440 C.3     1  UNL1        0.1082
     17 C          59.0217   92.2640    4.7449 C.3     1  UNL1        0.0938
     18 N          60.1337   92.3208    3.7399 N.3     1  UNL1       -0.2670
     19 C          59.9233   93.0148    2.4268 C.3     1  UNL1        0.1047
     20 C          61.0353   93.0716    1.4218 C.3     1  UNL1        0.1595
     21 O          62.3579   92.4344    1.7298 O.3     1  UNL1       -0.3508
     22 C          62.5684   91.7405    3.0428 C.3     1  UNL1        0.1595
     23 C          61.4563   91.6836    4.0479 C.3     1  UNL1        0.1047
     24 S          63.7744   83.4766   12.0116 S.3     1  UNL1       -0.0470
     25 C          63.3126   83.6246   13.4310 C.ar    1  UNL1        0.2172
     26 N          62.6259   82.5715   14.2492 N.ar    1  UNL1       -0.1200
     27 N          62.3452   83.1477   15.6053 N.ar    1  UNL1       -0.1264
     28 C          62.8584   84.5571   15.6253 C.ar    1  UNL1        0.1874
     29 C          62.8586   85.6102   16.6935 C.ar    1  UNL1        0.0455
     30 C          63.4566   86.9579   16.4180 C.ar    1  UNL1        0.0624
     31 C          64.0545   87.2526   15.0742 C.ar    1  UNL1        0.2423
     32 N          64.0543   86.1996   14.0060 N.ar    1  UNL1       -0.1242
     33 N          63.4563   84.8518   14.2815 N.ar    1  UNL1       -0.1830
     34 O          64.6525   88.6003   14.7987 O.3     1  UNL1       -0.4631
     35 C          64.1344   89.4330   13.6637 C.3     1  UNL1        0.1676
     36 C          64.3850   90.8975   13.4585 C.3     1  UNL1        0.0436
     37 C          63.6801   91.3169   12.2026 C.3     1  UNL1        0.0038
     38 C          62.9938   90.1115   11.6316 C.3     1  UNL1        0.0038
     39 C          63.2746   88.9471   12.5347 C.3     1  UNL1        0.0436
@<TRIPOS>BOND
     1    10    11    2
     2    11    12   am
     3    12    16    1
     4    16    17    1
     5    17    18    1
     6    18    19    1
     7    19    20    1
     8    20    21    1
     9    21    22    1
    10    22    23    1
    11    11    13   am
    12    13     1    1
    13     1     2   ar
    14     2     3   ar
    15     3     4   ar
    16     4     5   ar
    17     5     6   ar
    18     6    24    1
    19    24    25    1
    20    25    26   ar
    21    26    27   ar
    22    27    28   ar
    23    28    29   ar
    24    29    30   ar
    25    30    31   ar
    26    31    34    1
    27    34    35    1
    28    35    36    1
    29    36    37    1
    30    37    38    1
    31    38    39    1
    32    31    32   ar
    33    32    33   ar
    34     6     7   ar
    35     7     8   ar
    36     8     9   ar
    37    23    18    1
    38     9     1   ar
    39     8     3   ar
    40    33    25   ar
    41    33    28   ar
    42    39    35    1
    43    12    14    1
    44    13    15    1
@<TRIPOS>MOLECULE
*****
 39 44 0 0 0
SMALL
GASTEIGER

@<TRIPOS>ATOM
      1 C          64.3706   84.9799   15.4722 C.ar    1  UNL1        0.1667
      2 N          63.5424   85.4583   16.6277 N.ar    1  UNL1       -0.2239
      3 C          63.4995   86.9569   16.5782 C.ar    1  UNL1        0.0893
      4 C          62.8339   87.9715   17.4599 C.ar    1  UNL1        0.0202
      5 C          62.9701   89.4340   17.1555 C.ar    1  UNL1        0.0081
      6 C          63.7718   89.8817   15.9695 C.ar    1  UNL1        0.0329
      7 C          64.4373   88.8671   15.0877 C.ar    1  UNL1        0.0146
      8 C          64.3012   87.4046   15.3921 C.ar    1  UNL1        0.0502
      9 S          64.8396   86.1828   14.7086 S.2     1  UNL1       -0.0513
     10 O          62.2334   83.2188   14.3185 O.2     1  UNL1       -0.2524
     11 C          63.6077   82.6692   14.5620 C.2     1  UNL1        0.3059
     12 N          63.9133   81.2390   14.2287 N.am    1  UNL1       -0.2872
     13 N          64.6763   83.5497   15.1389 N.am    1  UNL1       -0.2485
     14 H          64.8153   80.8782   14.3885 H       1  UNL1        0.1510
     15 H          65.5782   83.1889   15.2987 H       1  UNL1        0.1583
     16 C          62.8447   80.3584   13.6518 C.3     1  UNL1        0.1082
     17 C          62.3762   80.5723   12.2430 C.3     1  UNL1        0.0938
     18 N          62.8142   81.7894   11.4836 N.3     1  UNL1       -0.2670
     19 C          63.9888   81.7111   10.5539 C.3     1  UNL1        0.1047
     20 C          64.4268   82.9282    9.7945 C.3     1  UNL1        0.1595
     21 O          63.6902   84.2238    9.9648 O.3     1  UNL1       -0.3508
     22 C          62.5156   84.3022   10.8944 C.3     1  UNL1        0.1595
     23 C          62.0776   83.0850   11.6538 C.3     1  UNL1        0.1047
     24 S          63.9080   91.3443   15.6651 S.3     1  UNL1       -0.0470
     25 C          65.0103   91.8243   14.7682 C.ar    1  UNL1        0.2172
     26 N          66.3540   92.3221   15.2116 N.ar    1  UNL1       -0.1200
     27 N          67.1366   92.6962   13.9879 N.ar    1  UNL1       -0.1264
     28 C          66.2765   92.4295   12.7881 C.ar    1  UNL1        0.1874
     29 C          66.5202   92.6078   11.3189 C.ar    1  UNL1        0.0455
     30 C          65.4499   92.2472   10.3318 C.ar    1  UNL1        0.0624
     31 C          64.1357   91.7083   10.8141 C.ar    1  UNL1        0.2423
     32 N          63.8920   91.5301   12.2834 N.ar    1  UNL1       -0.1242
     33 N          64.9624   91.8907   13.2705 N.ar    1  UNL1       -0.1830
     34 O          63.0653   91.3477    9.8272 O.3     1  UNL1       -0.4631
     35 C          62.0859   90.2578   10.1478 C.3     1  UNL1        0.1676
     36 C          62.3112   88.7867    9.9601 C.3     1  UNL1        0.0436
     37 C          61.0737   88.0673   10.4087 C.3     1  UNL1        0.0038
     38 C          60.0836   89.0938   10.8735 C.3     1  UNL1        0.0038
     39 C          60.7092   90.4476   10.7122 C.3     1  UNL1        0.0436
@<TRIPOS>BOND
     1    10    11    2
     2    11    12   am
     3    12    16    1
     4    16    17    1
     5    17    18    1
     6    18    19    1
     7    19    20    1
     8    20    21    1
     9    21    22    1
    10    22    23    1
    11    11    13   am
    12    13     1    1
    13     1     2   ar
    14     2     3   ar
    15     3     4   ar
    16     4     5   ar
    17     5     6   ar
    18     6    24    1
    19    24    25    1
    20    25    26   ar
    21    26    27   ar
    22    27    28   ar
    23    28    29   ar
    24    29    30   ar
    25    30    31   ar
    26    31    34    1
    27    34    35    1
    28    35    36    1
    29    36    37    1
    30    37    38    1
    31    38    39    1
    32    31    32   ar
    33    32    33   ar
    34     6     7   ar
    35     7     8   ar
    36     8     9   ar
    37    23    18    1
    38     9     1   ar
    39     8     3   ar
    40    33    25   ar
    41    33    28   ar
    42    39    35    1
    43    12    14    1
    44    13    15    1
@<TRIPOS>MOLECULE
*****
 39 44 0 0 0
SMALL
GASTEIGER

@<TRIPOS>ATOM
      1 C          63.1420   90.4281   13.4350 C.ar    1  UNL1        0.1667
      2 N          62.4834   90.8078   12.1419 N.ar    1  UNL1       -0.2239
      3 C          62.2519   89.5528   11.3536 C.ar    1  UNL1        0.0893
      4 C          61.6383   89.3128   10.0061 C.ar    1  UNL1        0.0202
      5 C          61.5402   87.9175    9.4645 C.ar    1  UNL1        0.0081
      6 C          62.0557   86.7622   10.2703 C.ar    1  UNL1        0.0329
      7 C          62.6694   87.0021   11.6179 C.ar    1  UNL1        0.0146
      8 C          62.7675   88.3975   12.1595 C.ar    1  UNL1        0.0502
      9 S          63.3176   88.9384   13.4458 S.2     1  UNL1       -0.0513
     10 O          66.0402   90.7208   14.1527 O.2     1  UNL1       -0.2524
     11 C          65.0020   91.5186   14.8846 C.2     1  UNL1        0.3059
     12 N          65.4129   92.4628   15.9753 N.am    1  UNL1       -0.2872
     13 N          63.5529   91.3723   14.5257 N.am    1  UNL1       -0.2485
     14 H          64.7315   92.9865   16.4557 H       1  UNL1        0.1510
     15 H          62.8716   91.8959   15.0061 H       1  UNL1        0.1583
     16 C          66.8620   92.6091   16.3341 C.3     1  UNL1        0.1082
     17 C          67.7984   93.3161   15.3996 C.3     1  UNL1        0.0938
     18 N          67.6253   93.1758   13.9162 N.3     1  UNL1       -0.2670
     19 C          68.4187   92.1501   13.1622 C.3     1  UNL1        0.1047
     20 C          68.2457   92.0098   11.6789 C.3     1  UNL1        0.1595
     21 O          67.2792   92.8952   10.9495 O.3     1  UNL1       -0.3508
     22 C          66.4858   93.9208   11.7034 C.3     1  UNL1        0.1595
     23 C          66.6588   94.0612   13.1868 C.3     1  UNL1        0.1047
     24 S          61.9576   85.3668    9.7287 S.3     1  UNL1       -0.0470
     25 C          62.9431   84.3226   10.1630 C.ar    1  UNL1        0.2172
     26 N          63.8952   83.5833    9.2703 N.ar    1  UNL1       -0.1200
     27 N          64.6900   82.6382   10.1218 N.ar    1  UNL1       -0.1264
     28 C          64.2290   82.7934   11.5408 C.ar    1  UNL1        0.1874
     29 C          64.6528   82.1213   12.8130 C.ar    1  UNL1        0.0455
     30 C          63.9971   82.4901   14.1107 C.ar    1  UNL1        0.0624
     31 C          62.9174   83.5311   14.1361 C.ar    1  UNL1        0.2423
     32 N          62.4935   84.2032   12.8639 N.ar    1  UNL1       -0.1242
     33 N          63.1493   83.8344   11.5662 N.ar    1  UNL1       -0.1830
     34 O          62.2616   83.9000   15.4337 O.3     1  UNL1       -0.4631
     35 C          62.6099   85.1932   16.1091 C.3     1  UNL1        0.1676
     36 C          63.7259   86.1176   15.7218 C.3     1  UNL1        0.0436
     37 C          63.7091   87.2848   16.6638 C.3     1  UNL1        0.0038
     38 C          62.5826   87.0818   17.6333 C.3     1  UNL1        0.0038
     39 C          61.9033   85.7891   17.2904 C.3     1  UNL1        0.0436
@<TRIPOS>BOND
     1    10    11    2
     2    11    12   am
     3    12    16    1
     4    16    17    1
     5    17    18    1
     6    18    19    1
     7    19    20    1
     8    20    21    1
     9    21    22    1
    10    22    23    1
    11    11    13   am
    12    13     1    1
    13     1     2   ar
    14     2     3   ar
    15     3     4   ar
    16     4     5   ar
    17     5     6   ar
    18     6    24    1
    19    24    25    1
    20    25    26   ar
    21    26    27   ar
    22    27    28   ar
    23    28    29   ar
    24    29    30   ar
    25    30    31   ar
    26    31    34    1
    27    34    35    1
    28    35    36    1
    29    36    37    1
    30    37    38    1
    31    38    39    1
    32    31    32   ar
    33    32    33   ar
    34     6     7   ar
    35     7     8   ar
    36     8     9   ar
    37    23    18    1
    38     9     1   ar
    39     8     3   ar
    40    33    25   ar
    41    33    28   ar
    42    39    35    1
    43    12    14    1
    44    13    15    1
@<TRIPOS>MOLECULE
*****
 39 44 0 0 0
SMALL
GASTEIGER

@<TRIPOS>ATOM
      1 C          63.5646   90.7619   12.3489 C.ar    1  UNL1        0.1667
      2 N          62.6293   90.9021   11.1846 N.ar    1  UNL1       -0.2239
      3 C          62.2099   89.5264   10.7586 C.ar    1  UNL1        0.0893
      4 C          61.2998   89.0477    9.6666 C.ar    1  UNL1        0.0202
      5 C          61.0657   87.5785    9.4756 C.ar    1  UNL1        0.0081
      6 C          61.7417   86.5880   10.3766 C.ar    1  UNL1        0.0329
      7 C          62.6519   87.0667   11.4686 C.ar    1  UNL1        0.0146
      8 C          62.8860   88.5359   11.6596 C.ar    1  UNL1        0.0502
      9 S          63.7232   89.2995   12.6424 S.2     1  UNL1       -0.0513
     10 O          65.4432   92.6063   10.9105 O.2     1  UNL1       -0.2524
     11 C          65.1645   92.8088   12.3704 C.2     1  UNL1        0.3059
     12 N          65.8252   93.9334   13.1112 N.am    1  UNL1       -0.2872
     13 N          64.2253   91.8866   13.0896 N.am    1  UNL1       -0.2485
     14 H          65.6423   94.0663   14.0694 H       1  UNL1        0.1510
     15 H          64.0424   92.0194   14.0478 H       1  UNL1        0.1583
     16 C          66.7645   94.8557   12.3919 C.3     1  UNL1        0.1082
     17 C          66.2277   96.0446   11.6514 C.3     1  UNL1        0.0938
     18 N          66.2149   96.0509   10.1515 N.3     1  UNL1       -0.2670
     19 C          65.1802   96.8477    9.4136 C.3     1  UNL1        0.1047
     20 C          65.1674   96.8540    7.9137 C.3     1  UNL1        0.1595
     21 O          66.1893   96.0634    7.1516 O.3     1  UNL1       -0.3508
     22 C          67.2239   95.2666    7.8894 C.3     1  UNL1        0.1595
     23 C          67.2368   95.2603    9.3894 C.3     1  UNL1        0.1047
     24 S          61.5076   85.1187   10.1856 S.3     1  UNL1       -0.0470
     25 C          62.5778   84.1345   10.5544 C.ar    1  UNL1        0.2172
     26 N          63.4190   83.3459    9.5950 N.ar    1  UNL1       -0.1200
     27 N          64.3558   82.4901   10.3950 N.ar    1  UNL1       -0.1264
     28 C          64.0935   82.7498   11.8490 C.ar    1  UNL1        0.1874
     29 C          64.7133   82.1922   13.0959 C.ar    1  UNL1        0.0455
     30 C          64.2343   82.6507   14.4413 C.ar    1  UNL1        0.0624
     31 C          63.1354   83.6670   14.5399 C.ar    1  UNL1        0.2423
     32 N          62.5156   84.2246   13.2929 N.ar    1  UNL1       -0.1242
     33 N          62.9946   83.7661   11.9474 N.ar    1  UNL1       -0.1830
     34 O          62.6564   84.1256   15.8852 O.3     1  UNL1       -0.4631
     35 C          62.8762   85.5456   16.3157 C.3     1  UNL1        0.1676
     36 C          63.6452   86.5874   15.5586 C.3     1  UNL1        0.0436
     37 C          63.6099   87.8588   16.3539 C.3     1  UNL1        0.0038
     38 C          62.8192   87.6027   17.6025 C.3     1  UNL1        0.0038
     39 C          62.3657   86.1730   17.5789 C.3     1  UNL1        0.0436
@<TRIPOS>BOND
     1    10    11    2
     2    11    12   am
     3    12    16    1
     4    16    17    1
     5    17    18    1
     6    18    19    1
     7    19    20    1
     8    20    21    1
     9    21    22    1
    10    22    23    1
    11    11    13   am
    12    13     1    1
    13     1     2   ar
    14     2     3   ar
    15     3     4   ar
    16     4     5   ar
    17     5     6   ar
    18     6    24    1
    19    24    25    1
    20    25    26   ar
    21    26    27   ar
    22    27    28   ar
    23    28    29   ar
    24    29    30   ar
    25    30    31   ar
    26    31    34    1
    27    34    35    1
    28    35    36    1
    29    36    37    1
    30    37    38    1
    31    38    39    1
    32    31    32   ar
    33    32    33   ar
    34     6     7   ar
    35     7     8   ar
    36     8     9   ar
    37    23    18    1
    38     9     1   ar
    39     8     3   ar
    40    33    25   ar
    41    33    28   ar
    42    39    35    1
    43    12    14    1
    44    13    15    1
@<TRIPOS>MOLECULE
*****
 39 44 0 0 0
SMALL
GASTEIGER

@<TRIPOS>ATOM
      1 C          59.7943   89.0134    8.3814 C.ar    1  UNL1        0.1667
      2 N          60.2866   87.6677    8.8248 N.ar    1  UNL1       -0.2239
      3 C          61.2749   87.8777    9.9334 C.ar    1  UNL1        0.0893
      4 C          62.0823   86.9160   10.7539 C.ar    1  UNL1        0.0202
      5 C          63.0081   87.4299   11.8163 C.ar    1  UNL1        0.0081
      6 C          63.1266   88.9056   12.0582 C.ar    1  UNL1        0.0329
      7 C          62.3193   89.8673   11.2377 C.ar    1  UNL1        0.0146
      8 C          61.3934   89.3534   10.1753 C.ar    1  UNL1        0.0502
      9 S          60.4783   90.0552    9.2161 S.2     1  UNL1       -0.0513
     10 O          60.4248   90.9705    6.1968 O.2     1  UNL1       -0.2524
     11 C          59.1088   90.2505    6.2021 C.2     1  UNL1        0.3059
     12 N          58.1081   90.5090    5.1149 N.am    1  UNL1       -0.2872
     13 N          58.7936   89.2720    7.2943 N.am    1  UNL1       -0.2485
     14 H          57.2445   90.0365    5.1183 H       1  UNL1        0.1510
     15 H          57.9299   88.7994    7.2977 H       1  UNL1        0.1583
     16 C          58.4234   91.4876    4.0226 C.3     1  UNL1        0.1082
     17 C          59.5899   92.4199    4.1646 C.3     1  UNL1        0.0938
     18 N          60.4535   92.7268    2.9772 N.3     1  UNL1       -0.2670
     19 C          61.8897   92.2938    2.9623 C.3     1  UNL1        0.1047
     20 C          62.7533   92.6007    1.7750 C.3     1  UNL1        0.1595
     21 O          62.1809   93.3406    0.6024 O.3     1  UNL1       -0.3508
     22 C          60.7448   93.7736    0.6172 C.3     1  UNL1        0.1595
     23 C          59.8811   93.4667    1.8046 C.3     1  UNL1        0.1047
     24 S          64.0525   89.4194   13.1206 S.3     1  UNL1       -0.0470
     25 C          63.6536   89.3423   14.5645 C.ar    1  UNL1        0.2172
     26 N          63.3258   90.5062   15.4521 N.ar    1  UNL1       -0.1200
     27 N          62.9820   89.9709   16.8105 N.ar    1  UNL1       -0.1264
     28 C          63.0974   88.4761   16.7624 C.ar    1  UNL1        0.1874
     29 C          62.8781   87.4185   17.8032 C.ar    1  UNL1        0.0455
     30 C          63.0738   85.9724   17.4561 C.ar    1  UNL1        0.0624
     31 C          63.4889   85.5839   16.0680 C.ar    1  UNL1        0.2423
     32 N          63.7082   86.6415   15.0271 N.ar    1  UNL1       -0.1242
     33 N          63.5124   88.0876   15.3743 N.ar    1  UNL1       -0.1830
     34 O          63.6846   84.1379   15.7208 O.3     1  UNL1       -0.4631
     35 C          63.5424   83.6821   14.2988 C.3     1  UNL1        0.1676
     36 C          62.4125   82.8670   13.7430 C.3     1  UNL1        0.0436
     37 C          62.6770   82.6425   12.2836 C.3     1  UNL1        0.0038
     38 C          63.9704   83.3188   11.9375 C.3     1  UNL1        0.0038
     39 C          64.5053   83.9613   13.1830 C.3     1  UNL1        0.0436
@<TRIPOS>BOND
     1    10    11    2
     2    11    12   am
     3    12    16    1
     4    16    17    1
     5    17    18    1
     6    18    19    1
     7    19    20    1
     8    20    21    1
     9    21    22    1
    10    22    23    1
    11    11    13   am
    12    13     1    1
    13     1     2   ar
    14     2     3   ar
    15     3     4   ar
    16     4     5   ar
    17     5     6   ar
    18     6    24    1
    19    24    25    1
    20    25    26   ar
    21    26    27   ar
    22    27    28   ar
    23    28    29   ar
    24    29    30   ar
    25    30    31   ar
    26    31    34    1
    27    34    35    1
    28    35    36    1
    29    36    37    1
    30    37    38    1
    31    38    39    1
    32    31    32   ar
    33    32    33   ar
    34     6     7   ar
    35     7     8   ar
    36     8     9   ar
    37    23    18    1
    38     9     1   ar
    39     8     3   ar
    40    33    25   ar
    41    33    28   ar
    42    39    35    1
    43    12    14    1
    44    13    15    1
