@<TRIPOS>MOLECULE
*****
 32 37 0 0 0
SMALL
GASTEIGER

@<TRIPOS>ATOM
      1 N          62.4338   88.2849   12.0021 N.pl3   1  UNL1       -0.3414
      2 C          63.1873   89.5817   12.0278 C.ar    1  UNL1        0.1432
      3 N          62.9903   90.5854   10.9307 N.ar    1  UNL1       -0.2265
      4 C          63.7438   91.8822   10.9563 C.ar    1  UNL1        0.1193
      5 C          64.6944   92.1751   12.0792 C.ar    1  UNL1        0.1020
      6 N          64.8914   91.1713   13.1762 N.ar    1  UNL1       -0.2885
      7 C          65.7544   91.1816   14.4031 C.ar    1  UNL1        0.1239
      8 N          65.5342   89.8913   15.1356 N.ar    1  UNL1       -0.2305
      9 C          64.5352   89.0835   14.3615 C.ar    1  UNL1        0.1014
     10 C          64.1379   89.8746   13.1505 C.ar    1  UNL1        0.1141
     11 H          61.8099   88.0927   11.2652 H       1  UNL1        0.1438
     12 H          62.5631   87.6261   12.7221 H       1  UNL1        0.1438
     13 C          64.0232   87.7234   14.7331 C.ar    1  UNL1        0.0207
     14 C          63.5255   87.4635   16.1240 C.ar    1  UNL1        0.0016
     15 C          63.0136   86.1035   16.4955 C.ar    1  UNL1        0.0015
     16 C          62.9993   85.0032   15.4761 C.ar    1  UNL1        0.0177
     17 C          62.4874   83.6431   15.8477 C.ar    1  UNL1        0.0030
     18 C          62.4731   82.5428   14.8282 C.ar    1  UNL1        0.0191
     19 C          62.9708   82.8027   13.4372 C.ar    1  UNL1        0.0812
     20 N          63.4827   84.1628   13.0657 N.ar    1  UNL1       -0.2454
     21 C          63.4970   85.2630   14.0851 C.ar    1  UNL1        0.0813
     22 C          64.0089   86.6231   13.7136 C.ar    1  UNL1        0.0206
     23 C          62.9565   81.7025   12.4178 C.ar    1  UNL1        0.0176
     24 C          62.5836   80.3077   12.8248 C.ar    1  UNL1        0.0015
     25 C          62.5693   79.2074   11.8054 C.ar    1  UNL1        0.0000
     26 C          62.9280   79.5020   10.3789 C.ar    1  UNL1        0.0000
     27 C          63.3009   80.8967    9.9720 C.ar    1  UNL1        0.0000
     28 C          63.3152   81.9969   10.9914 C.ar    1  UNL1        0.0015
     29 C          66.6759   92.2881   14.8236 C.3     1  UNL1        0.0573
     30 C          67.8072   92.4126   15.8007 C.3     1  UNL1        0.0075
     31 C          67.9789   93.8528   15.4183 C.3     1  UNL1        0.0009
     32 C          66.8476   93.7283   14.4412 C.3     1  UNL1        0.0075
@<TRIPOS>BOND
     1     1     2    1
     2     2     3   ar
     3     3     4   ar
     4     4     5   ar
     5     5     6   ar
     6     6     7   ar
     7     7    29    1
     8    29    30    1
     9    30    31    1
    10    31    32    1
    11     7     8   ar
    12     8     9   ar
    13     9    13    1
    14    13    14   ar
    15    14    15   ar
    16    15    16   ar
    17    16    17   ar
    18    17    18   ar
    19    18    19   ar
    20    19    23    1
    21    23    24   ar
    22    24    25   ar
    23    25    26   ar
    24    26    27   ar
    25    27    28   ar
    26    19    20   ar
    27    20    21   ar
    28    21    22   ar
    29     9    10   ar
    30    10     2   ar
    31    10     6   ar
    32    32    29    1
    33    22    13   ar
    34    21    16   ar
    35    28    23   ar
    36     1    11    1
    37     1    12    1
@<TRIPOS>MOLECULE
*****
 32 37 0 0 0
SMALL
GASTEIGER

@<TRIPOS>ATOM
      1 N          62.3738   89.6885   10.6047 N.pl3   1  UNL1       -0.3414
      2 C          61.9895   88.2397   10.5486 C.ar    1  UNL1        0.1432
      3 N          61.1272   87.7353    9.4296 N.ar    1  UNL1       -0.2265
      4 C          60.7429   86.2865    9.3735 C.ar    1  UNL1        0.1193
      5 C          61.2209   85.3420   10.4363 C.ar    1  UNL1        0.1020
      6 N          62.0832   85.8464   11.5552 N.ar    1  UNL1       -0.2885
      7 C          62.7005   85.1571   12.7358 C.ar    1  UNL1        0.1239
      8 N          63.4662   86.1799   13.5216 N.ar    1  UNL1       -0.2305
      9 C          63.3223   87.5014   12.8266 C.ar    1  UNL1        0.1014
     10 C          62.4675   87.2953   11.6113 C.ar    1  UNL1        0.1141
     11 H          62.0601   90.3084    9.9072 H       1  UNL1        0.1438
     12 H          62.9398   90.0196   11.3391 H       1  UNL1        0.1438
     13 C          63.9269   88.8008   13.2693 C.ar    1  UNL1        0.0207
     14 C          64.0712   89.1014   14.7317 C.ar    1  UNL1        0.0016
     15 C          64.6758   90.4008   15.1743 C.ar    1  UNL1        0.0015
     16 C          65.1361   91.3997   14.1543 C.ar    1  UNL1        0.0177
     17 C          65.7407   92.6992   14.5970 C.ar    1  UNL1        0.0030
     18 C          66.2011   93.6981   13.5770 C.ar    1  UNL1        0.0191
     19 C          66.0568   93.3975   12.1145 C.ar    1  UNL1        0.0812
     20 N          65.4522   92.0981   11.6720 N.ar    1  UNL1       -0.2454
     21 C          64.9919   91.0992   12.6919 C.ar    1  UNL1        0.0813
     22 C          64.3873   89.7998   12.2493 C.ar    1  UNL1        0.0206
     23 C          66.5172   94.3965   11.0946 C.ar    1  UNL1        0.0176
     24 C          66.2425   95.8570   11.2981 C.ar    1  UNL1        0.0015
     25 C          66.7028   96.8560   10.2782 C.ar    1  UNL1        0.0000
     26 C          67.4379   96.3943    9.0547 C.ar    1  UNL1        0.0000
     27 C          67.7125   94.9338    8.8513 C.ar    1  UNL1        0.0000
     28 C          67.2522   93.9349    9.8712 C.ar    1  UNL1        0.0015
     29 C          62.5741   83.7006   13.0717 C.3     1  UNL1        0.0573
     30 C          62.6443   82.4220   12.2906 C.3     1  UNL1        0.0075
     31 C          62.3954   81.6409   13.5467 C.3     1  UNL1        0.0009
     32 C          62.3252   82.9195   14.3279 C.3     1  UNL1        0.0075
@<TRIPOS>BOND
     1     1     2    1
     2     2     3   ar
     3     3     4   ar
     4     4     5   ar
     5     5     6   ar
     6     6     7   ar
     7     7    29    1
     8    29    30    1
     9    30    31    1
    10    31    32    1
    11     7     8   ar
    12     8     9   ar
    13     9    13    1
    14    13    14   ar
    15    14    15   ar
    16    15    16   ar
    17    16    17   ar
    18    17    18   ar
    19    18    19   ar
    20    19    23    1
    21    23    24   ar
    22    24    25   ar
    23    25    26   ar
    24    26    27   ar
    25    27    28   ar
    26    19    20   ar
    27    20    21   ar
    28    21    22   ar
    29     9    10   ar
    30    10     2   ar
    31    10     6   ar
    32    32    29    1
    33    22    13   ar
    34    21    16   ar
    35    28    23   ar
    36     1    11    1
    37     1    12    1
@<TRIPOS>MOLECULE
*****
 32 37 0 0 0
SMALL
GASTEIGER

@<TRIPOS>ATOM
      1 N          64.5380   90.1469   14.5146 N.pl3   1  UNL1       -0.3414
      2 C          65.4311   91.3272   14.2710 C.ar    1  UNL1        0.1432
      3 N          66.4619   91.7108   15.2910 N.ar    1  UNL1       -0.2265
      4 C          67.3551   92.8910   15.0474 C.ar    1  UNL1        0.1193
      5 C          67.2174   93.6876   13.7838 C.ar    1  UNL1        0.1020
      6 N          66.1866   93.3039   12.7639 N.ar    1  UNL1       -0.2885
      7 C          65.8210   93.8953   11.4347 C.ar    1  UNL1        0.1239
      8 N          64.7019   93.0806   10.8569 N.ar    1  UNL1       -0.2305
      9 C          64.3759   91.9857   11.8289 C.ar    1  UNL1        0.1014
     10 C          65.2935   92.1237   13.0075 C.ar    1  UNL1        0.1141
     11 H          64.6283   89.6241   15.3439 H       1  UNL1        0.1438
     12 H          63.8615   89.8951   13.8452 H       1  UNL1        0.1438
     13 C          63.3180   90.9368   11.6532 C.ar    1  UNL1        0.0207
     14 C          62.1541   90.8799   12.5977 C.ar    1  UNL1        0.0016
     15 C          61.0963   89.8311   12.4220 C.ar    1  UNL1        0.0015
     16 C          61.2023   88.8392   11.3018 C.ar    1  UNL1        0.0177
     17 C          60.1444   87.7903   11.1262 C.ar    1  UNL1        0.0030
     18 C          60.2505   86.7984   10.0060 C.ar    1  UNL1        0.0191
     19 C          61.4144   86.8553    9.0614 C.ar    1  UNL1        0.0812
     20 N          62.4723   87.9041    9.2371 N.ar    1  UNL1       -0.2454
     21 C          62.3662   88.8960   10.3573 C.ar    1  UNL1        0.0813
     22 C          63.4240   89.9449   10.5330 C.ar    1  UNL1        0.0206
     23 C          61.5205   85.8634    7.9413 C.ar    1  UNL1        0.0176
     24 C          62.8513   85.2655    7.5924 C.ar    1  UNL1        0.0015
     25 C          62.9573   84.2735    6.4722 C.ar    1  UNL1        0.0000
     26 C          61.7326   83.8795    5.7009 C.ar    1  UNL1        0.0000
     27 C          60.4019   84.4774    6.0498 C.ar    1  UNL1        0.0000
     28 C          60.2959   85.4693    7.1699 C.ar    1  UNL1        0.0015
     29 C          66.4619   95.0915   10.7956 C.3     1  UNL1        0.0573
     30 C          66.4572   96.5673   11.0635 C.3     1  UNL1        0.0075
     31 C          67.3684   96.7830    9.8917 C.3     1  UNL1        0.0009
     32 C          67.3732   95.3072    9.6238 C.3     1  UNL1        0.0075
@<TRIPOS>BOND
     1     1     2    1
     2     2     3   ar
     3     3     4   ar
     4     4     5   ar
     5     5     6   ar
     6     6     7   ar
     7     7    29    1
     8    29    30    1
     9    30    31    1
    10    31    32    1
    11     7     8   ar
    12     8     9   ar
    13     9    13    1
    14    13    14   ar
    15    14    15   ar
    16    15    16   ar
    17    16    17   ar
    18    17    18   ar
    19    18    19   ar
    20    19    23    1
    21    23    24   ar
    22    24    25   ar
    23    25    26   ar
    24    26    27   ar
    25    27    28   ar
    26    19    20   ar
    27    20    21   ar
    28    21    22   ar
    29     9    10   ar
    30    10     2   ar
    31    10     6   ar
    32    32    29    1
    33    22    13   ar
    34    21    16   ar
    35    28    23   ar
    36     1    11    1
    37     1    12    1
@<TRIPOS>MOLECULE
*****
 32 37 0 0 0
SMALL
GASTEIGER

@<TRIPOS>ATOM
      1 N          63.6979   92.3385    9.8437 N.pl3   1  UNL1       -0.3414
      2 C          64.6954   93.0994   10.6659 C.ar    1  UNL1        0.1432
      3 N          65.2288   94.4117   10.1726 N.ar    1  UNL1       -0.2265
      4 C          66.2263   95.1727   10.9947 C.ar    1  UNL1        0.1193
      5 C          66.6903   94.6212   12.3103 C.ar    1  UNL1        0.1020
      6 N          66.1569   93.3090   12.8036 N.ar    1  UNL1       -0.2885
      7 C          66.4271   92.5207   14.0509 C.ar    1  UNL1        0.1239
      8 N          65.5966   91.2727   13.9996 N.ar    1  UNL1       -0.2305
      9 C          64.8131   91.2896   12.7205 C.ar    1  UNL1        0.1014
     10 C          65.1595   92.5481   11.9814 C.ar    1  UNL1        0.1141
     11 H          63.3933   92.7004    8.9803 H       1  UNL1        0.1438
     12 H          63.3478   91.4772   10.1675 H       1  UNL1        0.1438
     13 C          63.8520   90.2334   12.2612 C.ar    1  UNL1        0.0207
     14 C          62.6861   90.6062   11.3943 C.ar    1  UNL1        0.0016
     15 C          61.7251   89.5500   10.9351 C.ar    1  UNL1        0.0015
     16 C          61.9300   88.1211   11.3428 C.ar    1  UNL1        0.0177
     17 C          60.9689   87.0649   10.8835 C.ar    1  UNL1        0.0030
     18 C          61.1739   85.6360   11.2912 C.ar    1  UNL1        0.0191
     19 C          62.3399   85.2633   12.1582 C.ar    1  UNL1        0.0812
     20 N          63.3009   86.3194   12.6174 N.ar    1  UNL1       -0.2454
     21 C          63.0960   87.7483   12.2097 C.ar    1  UNL1        0.0813
     22 C          64.0570   88.8045   12.6689 C.ar    1  UNL1        0.0206
     23 C          62.5448   83.8343   12.5659 C.ar    1  UNL1        0.0176
     24 C          62.8245   82.7904   11.5257 C.ar    1  UNL1        0.0015
     25 C          63.0294   81.3614   11.9334 C.ar    1  UNL1        0.0000
     26 C          62.9546   80.9765   13.3812 C.ar    1  UNL1        0.0000
     27 C          62.6748   82.0205   14.4213 C.ar    1  UNL1        0.0000
     28 C          62.4699   83.4494   14.0136 C.ar    1  UNL1        0.0015
     29 C          67.3634   92.9119   15.1556 C.3     1  UNL1        0.0573
     30 C          68.2529   94.0893   15.4251 C.3     1  UNL1        0.0075
     31 C          68.6875   93.4650   16.7179 C.3     1  UNL1        0.0009
     32 C          67.7981   92.2876   16.4484 C.3     1  UNL1        0.0075
@<TRIPOS>BOND
     1     1     2    1
     2     2     3   ar
     3     3     4   ar
     4     4     5   ar
     5     5     6   ar
     6     6     7   ar
     7     7    29    1
     8    29    30    1
     9    30    31    1
    10    31    32    1
    11     7     8   ar
    12     8     9   ar
    13     9    13    1
    14    13    14   ar
    15    14    15   ar
    16    15    16   ar
    17    16    17   ar
    18    17    18   ar
    19    18    19   ar
    20    19    23    1
    21    23    24   ar
    22    24    25   ar
    23    25    26   ar
    24    26    27   ar
    25    27    28   ar
    26    19    20   ar
    27    20    21   ar
    28    21    22   ar
    29     9    10   ar
    30    10     2   ar
    31    10     6   ar
    32    32    29    1
    33    22    13   ar
    34    21    16   ar
    35    28    23   ar
    36     1    11    1
    37     1    12    1
@<TRIPOS>MOLECULE
*****
 32 37 0 0 0
SMALL
GASTEIGER

@<TRIPOS>ATOM
      1 N          63.1852   85.6573   14.8036 N.pl3   1  UNL1       -0.3414
      2 C          63.2976   84.1777   14.5846 C.ar    1  UNL1        0.1432
      3 N          63.6769   83.2777   15.7231 N.ar    1  UNL1       -0.2265
      4 C          63.7894   81.7980   15.5040 C.ar    1  UNL1        0.1193
      5 C          63.5224   81.2184   14.1465 C.ar    1  UNL1        0.1020
      6 N          63.1431   82.1184   13.0081 N.ar    1  UNL1       -0.2885
      7 C          62.8230   81.8371   11.5698 C.ar    1  UNL1        0.1239
      8 N          62.5128   83.1429   10.9001 N.ar    1  UNL1       -0.2305
      9 C          62.6412   84.2312   11.9243 C.ar    1  UNL1        0.1014
     10 C          63.0307   83.5981   13.2271 C.ar    1  UNL1        0.1141
     11 H          63.3604   86.0378   15.6946 H       1  UNL1        0.1438
     12 H          62.9363   86.2480   14.0564 H       1  UNL1        0.1438
     13 C          62.4190   85.6957   11.6873 C.ar    1  UNL1        0.0207
     14 C          61.2676   86.1524   10.8414 C.ar    1  UNL1        0.0016
     15 C          61.0454   87.6167   10.6045 C.ar    1  UNL1        0.0015
     16 C          61.9747   88.6245   11.2135 C.ar    1  UNL1        0.0177
     17 C          61.7525   90.0889   10.9766 C.ar    1  UNL1        0.0030
     18 C          62.6818   91.0967   11.5856 C.ar    1  UNL1        0.0191
     19 C          63.8332   90.6400   12.4316 C.ar    1  UNL1        0.0812
     20 N          64.0554   89.1756   12.6685 N.ar    1  UNL1       -0.2454
     21 C          63.1261   88.1678   12.0595 C.ar    1  UNL1        0.0813
     22 C          63.3482   86.7034   12.2964 C.ar    1  UNL1        0.0206
     23 C          64.7625   91.6477   13.0406 C.ar    1  UNL1        0.0176
     24 C          65.1421   91.5394   14.4878 C.ar    1  UNL1        0.0015
     25 C          66.0713   92.5472   15.0968 C.ar    1  UNL1        0.0000
     26 C          66.6211   93.6632   14.2587 C.ar    1  UNL1        0.0000
     27 C          66.2415   93.7714   12.8116 C.ar    1  UNL1        0.0000
     28 C          65.3122   92.7636   12.2025 C.ar    1  UNL1        0.0015
     29 C          62.8146   80.4871   10.9162 C.3     1  UNL1        0.0573
     30 C          62.6714   79.0748   11.4009 C.3     1  UNL1        0.0075
     31 C          62.8028   78.5778    9.9918 C.3     1  UNL1        0.0009
     32 C          62.9460   79.9901    9.5070 C.3     1  UNL1        0.0075
@<TRIPOS>BOND
     1     1     2    1
     2     2     3   ar
     3     3     4   ar
     4     4     5   ar
     5     5     6   ar
     6     6     7   ar
     7     7    29    1
     8    29    30    1
     9    30    31    1
    10    31    32    1
    11     7     8   ar
    12     8     9   ar
    13     9    13    1
    14    13    14   ar
    15    14    15   ar
    16    15    16   ar
    17    16    17   ar
    18    17    18   ar
    19    18    19   ar
    20    19    23    1
    21    23    24   ar
    22    24    25   ar
    23    25    26   ar
    24    26    27   ar
    25    27    28   ar
    26    19    20   ar
    27    20    21   ar
    28    21    22   ar
    29     9    10   ar
    30    10     2   ar
    31    10     6   ar
    32    32    29    1
    33    22    13   ar
    34    21    16   ar
    35    28    23   ar
    36     1    11    1
    37     1    12    1
@<TRIPOS>MOLECULE
*****
 32 37 0 0 0
SMALL
GASTEIGER

@<TRIPOS>ATOM
      1 N          62.6798   84.7399   12.3485 N.pl3   1  UNL1       -0.3414
      2 C          63.4709   85.5126   13.3620 C.ar    1  UNL1        0.1432
      3 N          64.1965   84.7890   14.4573 N.ar    1  UNL1       -0.2265
      4 C          64.9876   85.5616   15.4708 C.ar    1  UNL1        0.1193
      5 C          65.0530   87.0580   15.3889 C.ar    1  UNL1        0.1020
      6 N          64.3273   87.7816   14.2936 N.ar    1  UNL1       -0.2885
      7 C          64.2092   89.2394   13.9604 C.ar    1  UNL1        0.1239
      8 N          63.3452   89.3676   12.7410 N.ar    1  UNL1       -0.2305
      9 C          62.9293   87.9891   12.3206 C.ar    1  UNL1        0.1014
     10 C          63.5363   87.0089   13.2801 C.ar    1  UNL1        0.1141
     11 H          62.6369   83.7578   12.4022 H       1  UNL1        0.1438
     12 H          62.2036   85.2149   11.6296 H       1  UNL1        0.1438
     13 C          62.0591   87.6503   11.1466 C.ar    1  UNL1        0.0207
     14 C          61.6059   86.2366   10.9323 C.ar    1  UNL1        0.0016
     15 C          60.7358   85.8978    9.7584 C.ar    1  UNL1        0.0015
     16 C          60.3189   86.9727    8.7988 C.ar    1  UNL1        0.0177
     17 C          59.4487   86.6338    7.6249 C.ar    1  UNL1        0.0030
     18 C          59.0319   87.7087    6.6653 C.ar    1  UNL1        0.0191
     19 C          59.4852   89.1225    6.8797 C.ar    1  UNL1        0.0812
     20 N          60.3553   89.4613    8.0536 N.ar    1  UNL1       -0.2454
     21 C          60.7721   88.3864    9.0131 C.ar    1  UNL1        0.0813
     22 C          61.6423   88.7252   10.1870 C.ar    1  UNL1        0.0206
     23 C          59.0683   90.1974    5.9201 C.ar    1  UNL1        0.0176
     24 C          60.1065   90.9643    5.1557 C.ar    1  UNL1        0.0015
     25 C          59.6896   92.0392    4.1961 C.ar    1  UNL1        0.0000
     26 C          58.2345   92.3472    4.0009 C.ar    1  UNL1        0.0000
     27 C          57.1964   91.5804    4.7653 C.ar    1  UNL1        0.0000
     28 C          57.6133   90.5054    5.7248 C.ar    1  UNL1        0.0015
     29 C          64.8438   90.3704   14.7143 C.3     1  UNL1        0.0573
     30 C          66.1804   91.0502   14.6798 C.3     1  UNL1        0.0075
     31 C          65.7411   91.9698   15.7804 C.3     1  UNL1        0.0009
     32 C          64.4045   91.2900   15.8149 C.3     1  UNL1        0.0075
@<TRIPOS>BOND
     1     1     2    1
     2     2     3   ar
     3     3     4   ar
     4     4     5   ar
     5     5     6   ar
     6     6     7   ar
     7     7    29    1
     8    29    30    1
     9    30    31    1
    10    31    32    1
    11     7     8   ar
    12     8     9   ar
    13     9    13    1
    14    13    14   ar
    15    14    15   ar
    16    15    16   ar
    17    16    17   ar
    18    17    18   ar
    19    18    19   ar
    20    19    23    1
    21    23    24   ar
    22    24    25   ar
    23    25    26   ar
    24    26    27   ar
    25    27    28   ar
    26    19    20   ar
    27    20    21   ar
    28    21    22   ar
    29     9    10   ar
    30    10     2   ar
    31    10     6   ar
    32    32    29    1
    33    22    13   ar
    34    21    16   ar
    35    28    23   ar
    36     1    11    1
    37     1    12    1
@<TRIPOS>MOLECULE
*****
 32 37 0 0 0
SMALL
GASTEIGER

@<TRIPOS>ATOM
      1 N          63.5139   92.3631    9.7322 N.pl3   1  UNL1       -0.3414
      2 C          64.6329   92.8922   10.5795 C.ar    1  UNL1        0.1432
      3 N          65.4473   94.0584   10.1034 N.ar    1  UNL1       -0.2265
      4 C          66.5663   94.5875   10.9507 C.ar    1  UNL1        0.1193
      5 C          66.8708   93.9503   12.2741 C.ar    1  UNL1        0.1020
      6 N          66.0564   92.7842   12.7501 N.ar    1  UNL1       -0.2885
      7 C          66.1221   91.9574   14.0001 C.ar    1  UNL1        0.1239
      8 N          65.0438   90.9175   13.9252 N.ar    1  UNL1       -0.2305
      9 C          64.3116   91.1014   12.6291 C.ar    1  UNL1        0.1014
     10 C          64.9374   92.2551   11.9028 C.ar    1  UNL1        0.1141
     11 H          63.3140   92.7812    8.8636 H       1  UNL1        0.1438
     12 H          62.9793   91.5977   10.0446 H       1  UNL1        0.1438
     13 C          63.1563   90.2765   12.1442 C.ar    1  UNL1        0.0207
     14 C          61.8110   90.4153   12.7929 C.ar    1  UNL1        0.0016
     15 C          60.6559   89.5904   12.3081 C.ar    1  UNL1        0.0015
     16 C          60.8460   88.6267   11.1745 C.ar    1  UNL1        0.0177
     17 C          59.6908   87.8018   10.6896 C.ar    1  UNL1        0.0030
     18 C          59.8809   86.8380    9.5560 C.ar    1  UNL1        0.0191
     19 C          61.2263   86.6992    8.9073 C.ar    1  UNL1        0.0812
     20 N          62.3814   87.5241    9.3921 N.ar    1  UNL1       -0.2454
     21 C          62.1913   88.4879   10.5257 C.ar    1  UNL1        0.0813
     22 C          63.3464   89.3127   11.0106 C.ar    1  UNL1        0.0206
     23 C          61.4164   85.7355    7.7736 C.ar    1  UNL1        0.0176
     24 C          62.7873   85.2200    7.4494 C.ar    1  UNL1        0.0015
     25 C          62.9774   84.2563    6.3158 C.ar    1  UNL1        0.0000
     26 C          61.7967   83.8080    5.5064 C.ar    1  UNL1        0.0000
     27 C          60.4259   84.3234    5.8307 C.ar    1  UNL1        0.0000
     28 C          60.2358   85.2872    6.9643 C.ar    1  UNL1        0.0015
     29 C          67.0953   92.1389   15.1270 C.3     1  UNL1        0.0573
     30 C          68.4356   91.5617   15.4743 C.3     1  UNL1        0.0075
     31 C          68.4716   92.3955   16.7207 C.3     1  UNL1        0.0009
     32 C          67.1314   92.9727   16.3734 C.3     1  UNL1        0.0075
@<TRIPOS>BOND
     1     1     2    1
     2     2     3   ar
     3     3     4   ar
     4     4     5   ar
     5     5     6   ar
     6     6     7   ar
     7     7    29    1
     8    29    30    1
     9    30    31    1
    10    31    32    1
    11     7     8   ar
    12     8     9   ar
    13     9    13    1
    14    13    14   ar
    15    14    15   ar
    16    15    16   ar
    17    16    17   ar
    18    17    18   ar
    19    18    19   ar
    20    19    23    1
    21    23    24   ar
    22    24    25   ar
    23    25    26   ar
    24    26    27   ar
    25    27    28   ar
    26    19    20   ar
    27    20    21   ar
    28    21    22   ar
    29     9    10   ar
    30    10     2   ar
    31    10     6   ar
    32    32    29    1
    33    22    13   ar
    34    21    16   ar
    35    28    23   ar
    36     1    11    1
    37     1    12    1
@<TRIPOS>MOLECULE
*****
 32 37 0 0 0
SMALL
GASTEIGER

@<TRIPOS>ATOM
      1 N          58.9627   92.3506   -1.5179 N.pl3   1  UNL1       -0.3414
      2 C          60.2431   92.7032   -0.8207 C.ar    1  UNL1        0.1432
      3 N          60.6485   91.9660    0.4212 N.ar    1  UNL1       -0.2265
      4 C          61.9290   92.3186    1.1183 C.ar    1  UNL1        0.1193
      5 C          62.8041   93.4083    0.5735 C.ar    1  UNL1        0.1020
      6 N          62.3987   94.1454   -0.6683 N.ar    1  UNL1       -0.2885
      7 C          63.0523   95.2575   -1.4340 C.ar    1  UNL1        0.1239
      8 N          62.1758   95.5922   -2.6043 N.ar    1  UNL1       -0.2305
      9 C          60.9804   94.6870   -2.5619 C.ar    1  UNL1        0.1014
     10 C          61.1182   93.7929   -1.3655 C.ar    1  UNL1        0.1141
     11 H          58.3883   91.6354   -1.1603 H       1  UNL1        0.1438
     12 H          58.6966   92.8344   -2.3330 H       1  UNL1        0.1438
     13 C          59.8464   94.6776   -3.5437 C.ar    1  UNL1        0.0207
     14 C          60.0818   94.2345   -4.9573 C.ar    1  UNL1        0.0016
     15 C          58.9477   94.2251   -5.9390 C.ar    1  UNL1        0.0015
     16 C          57.5782   94.6588   -5.5071 C.ar    1  UNL1        0.0177
     17 C          56.4441   94.6493   -6.4889 C.ar    1  UNL1        0.0030
     18 C          55.0747   95.0830   -6.0571 C.ar    1  UNL1        0.0191
     19 C          54.8393   95.5261   -4.6434 C.ar    1  UNL1        0.0812
     20 N          55.9734   95.5355   -3.6617 N.ar    1  UNL1       -0.2454
     21 C          57.3428   95.1018   -4.0936 C.ar    1  UNL1        0.0813
     22 C          58.4769   95.1112   -3.1119 C.ar    1  UNL1        0.0206
     23 C          53.4699   95.9598   -4.2115 C.ar    1  UNL1        0.0176
     24 C          53.1145   95.9807   -2.7543 C.ar    1  UNL1        0.0015
     25 C          51.7451   96.4144   -2.3224 C.ar    1  UNL1        0.0000
     26 C          50.7309   96.8271   -3.3478 C.ar    1  UNL1        0.0000
     27 C          51.0863   96.8062   -4.8049 C.ar    1  UNL1        0.0000
     28 C          52.4558   96.3725   -5.2368 C.ar    1  UNL1        0.0015
     29 C          64.3540   95.9187   -1.0897 C.3     1  UNL1        0.0573
     30 C          65.0724   96.2467    0.1855 C.3     1  UNL1        0.0075
     31 C          66.1948   96.8539   -0.6029 C.3     1  UNL1        0.0009
     32 C          65.4763   96.5260   -1.8782 C.3     1  UNL1        0.0075
@<TRIPOS>BOND
     1     1     2    1
     2     2     3   ar
     3     3     4   ar
     4     4     5   ar
     5     5     6   ar
     6     6     7   ar
     7     7    29    1
     8    29    30    1
     9    30    31    1
    10    31    32    1
    11     7     8   ar
    12     8     9   ar
    13     9    13    1
    14    13    14   ar
    15    14    15   ar
    16    15    16   ar
    17    16    17   ar
    18    17    18   ar
    19    18    19   ar
    20    19    23    1
    21    23    24   ar
    22    24    25   ar
    23    25    26   ar
    24    26    27   ar
    25    27    28   ar
    26    19    20   ar
    27    20    21   ar
    28    21    22   ar
    29     9    10   ar
    30    10     2   ar
    31    10     6   ar
    32    32    29    1
    33    22    13   ar
    34    21    16   ar
    35    28    23   ar
    36     1    11    1
    37     1    12    1
