@<TRIPOS>MOLECULE
*****
 31 35 0 0 0
SMALL
GASTEIGER

@<TRIPOS>ATOM
      1 C          62.0509   86.6165   11.1229 C.ar    1  UNL1        0.0033
      2 C          60.5988   86.8910   10.8660 C.ar    1  UNL1        0.0024
      3 C          60.0758   88.2948   10.9426 C.ar    1  UNL1        0.0296
      4 C          61.0050   89.4241   11.2762 C.ar    1  UNL1        0.1402
      5 F          60.4821   90.8279   11.3529 F       1  UNL1       -0.2042
      6 C          62.4572   89.1496   11.5332 C.ar    1  UNL1        0.0304
      7 C          62.9801   87.7459   11.4565 C.ar    1  UNL1        0.0024
      8 C          63.3864   90.2789   11.8667 C.ar    1  UNL1        0.0359
      9 C          63.7774   91.2663   10.8073 C.ar    1  UNL1        0.0006
     10 C          64.7066   92.3956   11.1409 C.ar    1  UNL1        0.0023
     11 C          65.2447   92.5376   12.5339 C.ar    1  UNL1        0.0542
     12 C          64.8536   91.5503   13.5933 C.ar    1  UNL1        0.0411
     13 C          63.9244   90.4209   13.2597 C.ar    1  UNL1        0.1388
     14 C          66.1359   93.7437   12.5658 C.2     1  UNL1        0.2492
     15 O          66.8832   94.2563   13.7611 O.2     1  UNL1       -0.2699
     16 N          66.1486   94.3471   11.1926 N.am    1  UNL1       -0.2702
     17 C          66.9109   95.5692   10.7736 C.3     1  UNL1        0.1155
     18 C          65.2653   93.5140   10.3120 C.3     1  UNL1        0.1206
     19 O          63.5334   89.4336   14.3191 O.3     1  UNL1       -0.4714
     20 C          63.4886   89.8556   15.7578 C.3     1  UNL1        0.2525
     21 N          62.9738   82.3252   13.5551 N.ar    1  UNL1       -0.2931
     22 C          62.3740   83.3483   14.4735 C.ar    1  UNL1        0.1797
     23 N          62.1276   84.5966   13.6791 N.ar    1  UNL1       -0.2222
     24 C          62.5751   84.3449   12.2697 C.ar    1  UNL1        0.1203
     25 C          62.5739   85.2127   11.0462 C.ar    1  UNL1        0.0417
     26 C          63.0957   84.6767    9.7460 C.ar    1  UNL1        0.1238
     27 N          63.6187   83.2730    9.6694 N.ar    1  UNL1       -0.1449
     28 N          63.6199   82.4052   10.8929 N.ar    1  UNL1       -0.1285
     29 C          63.0981   82.9412   12.1930 C.ar    1  UNL1        0.1843
     30 C          62.5855   79.7592   13.4339 C.3     1  UNL1        0.0266
     31 C          63.3782   80.9310   13.9324 C.3     1  UNL1        0.1091
@<TRIPOS>BOND
     1    30    31    1
     2    31    21    1
     3    21    22   ar
     4    22    23   ar
     5    23    24   ar
     6    24    25   ar
     7    25     1    1
     8     1     2   ar
     9     2     3   ar
    10     3     4   ar
    11     4     5    1
    12     4     6   ar
    13     6     8    1
    14     8     9   ar
    15     9    10   ar
    16    10    11   ar
    17    11    12   ar
    18    12    13   ar
    19    13    19    1
    20    19    20    1
    21    11    14    1
    22    14    15    2
    23    14    16   am
    24    16    17    1
    25    16    18    1
    26     6     7   ar
    27    25    26   ar
    28    26    27   ar
    29    27    28   ar
    30    28    29   ar
    31    29    21   ar
    32    29    24   ar
    33     7     1   ar
    34    13     8   ar
    35    18    10    1
@<TRIPOS>MOLECULE
*****
 31 35 0 0 0
SMALL
GASTEIGER

@<TRIPOS>ATOM
      1 C          62.8429   90.4181   11.2913 C.ar    1  UNL1        0.0033
      2 C          61.4730   90.9196   10.9424 C.ar    1  UNL1        0.0024
      3 C          60.3708   89.9460   10.6462 C.ar    1  UNL1        0.0296
      4 C          60.6387   88.4711   10.6989 C.ar    1  UNL1        0.1402
      5 F          59.5367   87.4976   10.4027 F       1  UNL1       -0.2042
      6 C          62.0088   87.9697   11.0479 C.ar    1  UNL1        0.0304
      7 C          63.1108   88.9432   11.3441 C.ar    1  UNL1        0.0024
      8 C          62.2767   86.4947   11.1007 C.ar    1  UNL1        0.0359
      9 C          62.5025   85.8203   12.4214 C.ar    1  UNL1        0.0006
     10 C          62.7704   84.3453   12.4741 C.ar    1  UNL1        0.0023
     11 C          62.8125   83.5449   11.2062 C.ar    1  UNL1        0.0542
     12 C          62.5866   84.2193    9.8856 C.ar    1  UNL1        0.0411
     13 C          62.3187   85.6943    9.8329 C.ar    1  UNL1        0.1388
     14 C          63.0966   82.1173   11.5686 C.2     1  UNL1        0.2492
     15 O          63.2246   80.9726   10.6078 O.2     1  UNL1       -0.2699
     16 N          63.2301   82.0355   13.0604 N.am    1  UNL1       -0.2702
     17 C          63.5152   80.7945   13.8533 C.3     1  UNL1        0.1155
     18 C          63.0286   83.4125   13.6200 C.3     1  UNL1        0.1206
     19 O          62.0928   86.3687    8.5122 O.3     1  UNL1       -0.4714
     20 C          60.8607   86.0611    7.7139 C.3     1  UNL1        0.2525
     21 N          65.9481   92.3493   14.7280 N.ar    1  UNL1       -0.2931
     22 C          65.0596   91.3019   15.3309 C.ar    1  UNL1        0.1797
     23 N          64.1649   90.7742   14.2487 N.ar    1  UNL1       -0.2222
     24 C          64.5006   91.4955   12.9770 C.ar    1  UNL1        0.1203
     25 C          63.9450   91.3917   11.5876 C.ar    1  UNL1        0.0417
     26 C          64.4915   92.2612   10.4944 C.ar    1  UNL1        0.1238
     27 N          65.5935   93.2347   10.7906 N.ar    1  UNL1       -0.1449
     28 N          66.1491   93.3386   12.1801 N.ar    1  UNL1       -0.1285
     29 C          65.6026   92.4690   13.2733 C.ar    1  UNL1        0.1843
     30 C          68.1718   92.4369   16.0686 C.3     1  UNL1        0.0266
     31 C          66.9979   93.1386   15.4527 C.3     1  UNL1        0.1091
@<TRIPOS>BOND
     1    30    31    1
     2    31    21    1
     3    21    22   ar
     4    22    23   ar
     5    23    24   ar
     6    24    25   ar
     7    25     1    1
     8     1     2   ar
     9     2     3   ar
    10     3     4   ar
    11     4     5    1
    12     4     6   ar
    13     6     8    1
    14     8     9   ar
    15     9    10   ar
    16    10    11   ar
    17    11    12   ar
    18    12    13   ar
    19    13    19    1
    20    19    20    1
    21    11    14    1
    22    14    15    2
    23    14    16   am
    24    16    17    1
    25    16    18    1
    26     6     7   ar
    27    25    26   ar
    28    26    27   ar
    29    27    28   ar
    30    28    29   ar
    31    29    21   ar
    32    29    24   ar
    33     7     1   ar
    34    13     8   ar
    35    18    10    1
@<TRIPOS>MOLECULE
*****
 31 35 0 0 0
SMALL
GASTEIGER

@<TRIPOS>ATOM
      1 C          63.5422   90.8121   11.4391 C.ar    1  UNL1        0.0033
      2 C          62.2982   91.1211   10.6601 C.ar    1  UNL1        0.0024
      3 C          61.2687   90.0533   10.4365 C.ar    1  UNL1        0.0296
      4 C          61.4833   88.6765   10.9919 C.ar    1  UNL1        0.1402
      5 F          60.4538   87.6087   10.7683 F       1  UNL1       -0.2042
      6 C          62.7274   88.3676   11.7709 C.ar    1  UNL1        0.0304
      7 C          63.7568   89.4354   11.9945 C.ar    1  UNL1        0.0024
      8 C          62.9420   86.9908   12.3263 C.ar    1  UNL1        0.0359
      9 C          62.5330   85.7881   11.5286 C.ar    1  UNL1        0.0006
     10 C          62.7476   84.4113   12.0840 C.ar    1  UNL1        0.0023
     11 C          63.3712   84.2373   13.4371 C.ar    1  UNL1        0.0542
     12 C          63.7801   85.4400   14.2348 C.ar    1  UNL1        0.0411
     13 C          63.5655   86.8167   13.6794 C.ar    1  UNL1        0.1388
     14 C          63.4571   82.7672   13.7222 C.2     1  UNL1        0.2492
     15 O          64.0155   82.1414   14.9659 O.2     1  UNL1       -0.2699
     16 N          62.8867   82.0326   12.5453 N.am    1  UNL1       -0.2702
     17 C          62.7745   80.5433   12.4054 C.3     1  UNL1        0.1155
     18 C          62.4482   83.0488   11.5328 C.3     1  UNL1        0.1206
     19 O          63.9745   88.0194   14.4772 O.3     1  UNL1       -0.4714
     20 C          63.6273   88.1067   15.9338 C.3     1  UNL1        0.2525
     21 N          66.6439   93.0620   14.6794 N.ar    1  UNL1       -0.2931
     22 C          65.8789   91.9557   15.3435 C.ar    1  UNL1        0.1797
     23 N          64.9782   91.3343   14.3176 N.ar    1  UNL1       -0.2222
     24 C          65.1865   92.0566   13.0195 C.ar    1  UNL1        0.1203
     25 C          64.5717   91.8800   11.6627 C.ar    1  UNL1        0.0417
     26 C          64.9864   92.7710   10.5296 C.ar    1  UNL1        0.1238
     27 N          66.0159   93.8388   10.7533 N.ar    1  UNL1       -0.1449
     28 N          66.6306   94.0154   12.1100 N.ar    1  UNL1       -0.1285
     29 C          66.2160   93.1244   13.2432 C.ar    1  UNL1        0.1843
     30 C          68.9597   93.3766   15.8144 C.3     1  UNL1        0.0266
     31 C          67.6587   93.9501   15.3364 C.3     1  UNL1        0.1091
@<TRIPOS>BOND
     1    30    31    1
     2    31    21    1
     3    21    22   ar
     4    22    23   ar
     5    23    24   ar
     6    24    25   ar
     7    25     1    1
     8     1     2   ar
     9     2     3   ar
    10     3     4   ar
    11     4     5    1
    12     4     6   ar
    13     6     8    1
    14     8     9   ar
    15     9    10   ar
    16    10    11   ar
    17    11    12   ar
    18    12    13   ar
    19    13    19    1
    20    19    20    1
    21    11    14    1
    22    14    15    2
    23    14    16   am
    24    16    17    1
    25    16    18    1
    26     6     7   ar
    27    25    26   ar
    28    26    27   ar
    29    27    28   ar
    30    28    29   ar
    31    29    21   ar
    32    29    24   ar
    33     7     1   ar
    34    13     8   ar
    35    18    10    1
@<TRIPOS>MOLECULE
*****
 31 35 0 0 0
SMALL
GASTEIGER

@<TRIPOS>ATOM
      1 C          62.6956   89.7732   11.9084 C.ar    1  UNL1        0.0033
      2 C          61.4810   90.3033   11.2059 C.ar    1  UNL1        0.0024
      3 C          60.5482   89.3602   10.5056 C.ar    1  UNL1        0.0296
      4 C          60.8301   87.8869   10.5078 C.ar    1  UNL1        0.1402
      5 F          59.8973   86.9438    9.8075 F       1  UNL1       -0.2042
      6 C          62.0448   87.3568   11.2104 C.ar    1  UNL1        0.0304
      7 C          62.9775   88.2999   11.9107 C.ar    1  UNL1        0.0024
      8 C          62.3267   85.8835   11.2126 C.ar    1  UNL1        0.0359
      9 C          62.2948   85.1158   12.5009 C.ar    1  UNL1        0.0006
     10 C          62.5767   83.6425   12.5031 C.ar    1  UNL1        0.0023
     11 C          62.8905   82.9370   11.2171 C.ar    1  UNL1        0.0542
     12 C          62.9223   83.7047    9.9289 C.ar    1  UNL1        0.0411
     13 C          62.6404   85.1780    9.9266 C.ar    1  UNL1        0.1388
     14 C          63.1247   81.4884   11.5283 C.2     1  UNL1        0.2492
     15 O          63.4677   80.4177   10.5354 O.2     1  UNL1       -0.2699
     16 N          62.9558   81.2987   13.0066 N.am    1  UNL1       -0.2702
     17 C          63.1002   80.0048   13.7517 C.3     1  UNL1        0.1155
     18 C          62.6171   82.6300   13.6091 C.3     1  UNL1        0.1206
     19 O          62.6723   85.9458    8.6383 O.3     1  UNL1       -0.4714
     20 C          61.7974   85.5273    7.4940 C.3     1  UNL1        0.2525
     21 N          65.7766   93.7153   11.5207 N.ar    1  UNL1       -0.2931
     22 C          65.1710   93.3705   10.1924 C.ar    1  UNL1        0.1797
     23 N          64.2673   92.1893   10.3876 N.ar    1  UNL1       -0.2222
     24 C          64.3144   91.8041   11.8366 C.ar    1  UNL1        0.1203
     25 C          63.6284   90.7163   12.6088 C.ar    1  UNL1        0.0417
     26 C          63.8752   90.5717   14.0812 C.ar    1  UNL1        0.1238
     27 N          64.8080   91.5149   14.7814 N.ar    1  UNL1       -0.1449
     28 N          65.4940   92.6026   14.0093 N.ar    1  UNL1       -0.1285
     29 C          65.2472   92.7472   12.5368 C.ar    1  UNL1        0.1843
     30 C          66.3123   96.2564   11.5951 C.3     1  UNL1        0.0266
     31 C          66.7421   94.8321   11.7862 C.3     1  UNL1        0.1091
@<TRIPOS>BOND
     1    30    31    1
     2    31    21    1
     3    21    22   ar
     4    22    23   ar
     5    23    24   ar
     6    24    25   ar
     7    25     1    1
     8     1     2   ar
     9     2     3   ar
    10     3     4   ar
    11     4     5    1
    12     4     6   ar
    13     6     8    1
    14     8     9   ar
    15     9    10   ar
    16    10    11   ar
    17    11    12   ar
    18    12    13   ar
    19    13    19    1
    20    19    20    1
    21    11    14    1
    22    14    15    2
    23    14    16   am
    24    16    17    1
    25    16    18    1
    26     6     7   ar
    27    25    26   ar
    28    26    27   ar
    29    27    28   ar
    30    28    29   ar
    31    29    21   ar
    32    29    24   ar
    33     7     1   ar
    34    13     8   ar
    35    18    10    1
@<TRIPOS>MOLECULE
*****
 31 35 0 0 0
SMALL
GASTEIGER

@<TRIPOS>ATOM
      1 C          63.5734   89.5430   13.2642 C.ar    1  UNL1        0.0033
      2 C          63.0223   90.0534   11.9659 C.ar    1  UNL1        0.0024
      3 C          62.5230   89.0882   10.9319 C.ar    1  UNL1        0.0296
      4 C          62.5748   87.6126   11.1963 C.ar    1  UNL1        0.1402
      5 F          62.0755   86.6474   10.1624 F       1  UNL1       -0.2042
      6 C          63.1260   87.1022   12.4947 C.ar    1  UNL1        0.0304
      7 C          63.6253   88.0674   13.5286 C.ar    1  UNL1        0.0024
      8 C          63.1778   85.6266   12.7591 C.ar    1  UNL1        0.0359
      9 C          62.9404   84.6555   11.6408 C.ar    1  UNL1        0.0006
     10 C          62.9922   83.1799   11.9052 C.ar    1  UNL1        0.0023
     11 C          63.2815   82.6754   13.2880 C.ar    1  UNL1        0.0542
     12 C          63.5189   83.6465   14.4062 C.ar    1  UNL1        0.0411
     13 C          63.4671   85.1221   14.1418 C.ar    1  UNL1        0.1388
     14 C          63.2689   81.1760   13.2463 C.2     1  UNL1        0.2492
     15 O          63.5109   80.2598   14.4090 O.2     1  UNL1       -0.2699
     16 N          62.9719   80.7539   11.8379 N.am    1  UNL1       -0.2702
     17 C          62.8647   79.3412   11.3450 C.3     1  UNL1        0.1155
     18 C          62.8009   81.9923   11.0091 C.3     1  UNL1        0.1206
     19 O          63.7045   86.0933   15.2601 O.3     1  UNL1       -0.4714
     20 C          63.1928   85.7909   16.6373 C.3     1  UNL1        0.2525
     21 N          67.0265   92.9616   14.5181 N.ar    1  UNL1       -0.2931
     22 C          67.2858   92.4096   13.1476 C.ar    1  UNL1        0.1797
     23 N          66.2186   91.3999   12.8451 N.ar    1  UNL1       -0.2222
     24 C          65.2997   91.3280   14.0286 C.ar    1  UNL1        0.1203
     25 C          64.0728   90.5082   14.2982 C.ar    1  UNL1        0.0417
     26 C          63.3452   90.6537   15.6018 C.ar    1  UNL1        0.1238
     27 N          63.8445   91.6189   16.6358 N.ar    1  UNL1       -0.1449
     28 N          65.0715   92.4386   16.3661 N.ar    1  UNL1       -0.1285
     29 C          65.7990   92.2932   15.0625 C.ar    1  UNL1        0.1843
     30 C          69.0499   93.5894   16.0220 C.3     1  UNL1        0.0266
     31 C          67.8501   93.9999   15.2207 C.3     1  UNL1        0.1091
@<TRIPOS>BOND
     1    30    31    1
     2    31    21    1
     3    21    22   ar
     4    22    23   ar
     5    23    24   ar
     6    24    25   ar
     7    25     1    1
     8     1     2   ar
     9     2     3   ar
    10     3     4   ar
    11     4     5    1
    12     4     6   ar
    13     6     8    1
    14     8     9   ar
    15     9    10   ar
    16    10    11   ar
    17    11    12   ar
    18    12    13   ar
    19    13    19    1
    20    19    20    1
    21    11    14    1
    22    14    15    2
    23    14    16   am
    24    16    17    1
    25    16    18    1
    26     6     7   ar
    27    25    26   ar
    28    26    27   ar
    29    27    28   ar
    30    28    29   ar
    31    29    21   ar
    32    29    24   ar
    33     7     1   ar
    34    13     8   ar
    35    18    10    1
@<TRIPOS>MOLECULE
*****
 31 35 0 0 0
SMALL
GASTEIGER

@<TRIPOS>ATOM
      1 C          63.6882   86.4573   15.3562 C.ar    1  UNL1        0.0033
      2 C          63.2553   86.7894   16.7534 C.ar    1  UNL1        0.0024
      3 C          63.1311   88.2222   17.1795 C.ar    1  UNL1        0.0296
      4 C          63.4397   89.3230   16.2083 C.ar    1  UNL1        0.1402
      5 F          63.3155   90.7558   16.6344 F       1  UNL1       -0.2042
      6 C          63.8725   88.9908   14.8110 C.ar    1  UNL1        0.0304
      7 C          63.9968   87.5580   14.3850 C.ar    1  UNL1        0.0024
      8 C          64.1811   90.0915   13.8398 C.ar    1  UNL1        0.0359
      9 C          65.0995   91.2083   14.2391 C.ar    1  UNL1        0.0006
     10 C          65.4081   92.3090   13.2679 C.ar    1  UNL1        0.0023
     11 C          64.7983   92.2929   11.8975 C.ar    1  UNL1        0.0542
     12 C          63.8800   91.1761   11.4983 C.ar    1  UNL1        0.0411
     13 C          63.5714   90.0754   12.4695 C.ar    1  UNL1        0.1388
     14 C          65.2836   93.5055   11.1599 C.2     1  UNL1        0.2492
     15 O          64.9226   93.8858    9.7546 O.2     1  UNL1       -0.2699
     16 N          66.1933   94.2711   12.0745 N.am    1  UNL1       -0.2702
     17 C          66.9017   95.5514   11.7442 C.3     1  UNL1        0.1155
     18 C          66.2703   93.5316   13.3772 C.3     1  UNL1        0.1206
     19 O          62.6530   88.9586   12.0703 O.3     1  UNL1       -0.4714
     20 C          62.2542   88.7926   10.6338 C.3     1  UNL1        0.2525
     21 N          63.1581   83.0976   11.6664 N.ar    1  UNL1       -0.2931
     22 C          62.7733   84.4720   11.2048 C.ar    1  UNL1        0.1797
     23 N          62.9571   85.4160   12.3559 N.ar    1  UNL1       -0.2222
     24 C          63.4556   84.6250   13.5289 C.ar    1  UNL1        0.1203
     25 C          63.8124   85.0244   14.9301 C.ar    1  UNL1        0.0417
     26 C          64.2934   83.9910   15.9051 C.ar    1  UNL1        0.1238
     27 N          64.4177   82.5582   15.4789 N.ar    1  UNL1       -0.1449
     28 N          64.0609   82.1588   14.0778 N.ar    1  UNL1       -0.1285
     29 C          63.5798   83.1922   13.1028 C.ar    1  UNL1        0.1843
     30 C          62.7840   80.5338   11.4739 C.3     1  UNL1        0.0266
     31 C          63.1268   81.8480   10.8372 C.3     1  UNL1        0.1091
@<TRIPOS>BOND
     1    30    31    1
     2    31    21    1
     3    21    22   ar
     4    22    23   ar
     5    23    24   ar
     6    24    25   ar
     7    25     1    1
     8     1     2   ar
     9     2     3   ar
    10     3     4   ar
    11     4     5    1
    12     4     6   ar
    13     6     8    1
    14     8     9   ar
    15     9    10   ar
    16    10    11   ar
    17    11    12   ar
    18    12    13   ar
    19    13    19    1
    20    19    20    1
    21    11    14    1
    22    14    15    2
    23    14    16   am
    24    16    17    1
    25    16    18    1
    26     6     7   ar
    27    25    26   ar
    28    26    27   ar
    29    27    28   ar
    30    28    29   ar
    31    29    21   ar
    32    29    24   ar
    33     7     1   ar
    34    13     8   ar
    35    18    10    1
@<TRIPOS>MOLECULE
*****
 31 35 0 0 0
SMALL
GASTEIGER

@<TRIPOS>ATOM
      1 C          62.0903   86.6307   11.3562 C.ar    1  UNL1        0.0033
      2 C          60.6304   86.9221   11.1728 C.ar    1  UNL1        0.0024
      3 C          60.1194   88.3234   11.3322 C.ar    1  UNL1        0.0296
      4 C          61.0684   89.4332   11.6750 C.ar    1  UNL1        0.1402
      5 F          60.5576   90.8345   11.8344 F       1  UNL1       -0.2042
      6 C          62.5284   89.1418   11.8584 C.ar    1  UNL1        0.0304
      7 C          63.0393   87.7405   11.6990 C.ar    1  UNL1        0.0024
      8 C          63.4775   90.2516   12.2012 C.ar    1  UNL1        0.0359
      9 C          64.2039   90.2388   13.5136 C.ar    1  UNL1        0.0006
     10 C          65.1529   91.3486   13.8564 C.ar    1  UNL1        0.0023
     11 C          65.3756   92.4714   12.8868 C.ar    1  UNL1        0.0542
     12 C          64.6492   92.4842   11.5745 C.ar    1  UNL1        0.0411
     13 C          63.7002   91.3743   11.2317 C.ar    1  UNL1        0.1388
     14 C          66.3643   93.4206   13.4961 C.2     1  UNL1        0.2492
     15 O          66.8750   94.6841   12.8693 O.2     1  UNL1       -0.2699
     16 N          66.7528   92.8846   14.8421 N.am    1  UNL1       -0.2702
     17 C          67.7201   93.5181   15.7978 C.3     1  UNL1        0.1155
     18 C          66.0041   91.6041   15.0648 C.3     1  UNL1        0.1206
     19 O          62.9738   91.3872    9.9193 O.3     1  UNL1       -0.4714
     20 C          62.5592   90.0957    9.2789 C.3     1  UNL1        0.2525
     21 N          63.0045   82.2054   13.5387 N.ar    1  UNL1       -0.2931
     22 C          62.4226   83.1808   14.5185 C.ar    1  UNL1        0.1797
     23 N          62.1778   84.4727   13.7966 N.ar    1  UNL1       -0.2222
     24 C          62.6084   84.2956   12.3706 C.ar    1  UNL1        0.1203
     25 C          62.6012   85.2294   11.1967 C.ar    1  UNL1        0.0417
     26 C          63.1050   84.7619    9.8635 C.ar    1  UNL1        0.1238
     27 N          63.6159   83.3606    9.7041 N.ar    1  UNL1       -0.1449
     28 N          63.6231   82.4269   10.8780 N.ar    1  UNL1       -0.1285
     29 C          63.1193   82.8944   12.2113 C.ar    1  UNL1        0.1843
     30 C          62.4739   79.6625   13.4898 C.3     1  UNL1        0.0266
     31 C          63.4019   80.7895   13.8344 C.3     1  UNL1        0.1091
@<TRIPOS>BOND
     1    30    31    1
     2    31    21    1
     3    21    22   ar
     4    22    23   ar
     5    23    24   ar
     6    24    25   ar
     7    25     1    1
     8     1     2   ar
     9     2     3   ar
    10     3     4   ar
    11     4     5    1
    12     4     6   ar
    13     6     8    1
    14     8     9   ar
    15     9    10   ar
    16    10    11   ar
    17    11    12   ar
    18    12    13   ar
    19    13    19    1
    20    19    20    1
    21    11    14    1
    22    14    15    2
    23    14    16   am
    24    16    17    1
    25    16    18    1
    26     6     7   ar
    27    25    26   ar
    28    26    27   ar
    29    27    28   ar
    30    28    29   ar
    31    29    21   ar
    32    29    24   ar
    33     7     1   ar
    34    13     8   ar
    35    18    10    1
