@<TRIPOS>MOLECULE
*****
 32 36 0 0 0
SMALL
GASTEIGER

@<TRIPOS>ATOM
      1 O          63.2976   87.1774   12.9618 O.2     1  UNL1       -0.2699
      2 C          62.7466   86.3754   11.8202 C.2     1  UNL1        0.2506
      3 N          61.7537   86.9927   10.8805 N.am    1  UNL1       -0.2723
      4 C          61.2027   86.1907    9.7388 C.3     1  UNL1        0.1257
      5 C          60.2097   86.8080    8.7991 C.3     1  UNL1        0.1637
      6 O          59.7679   88.2272    9.0009 O.3     1  UNL1       -0.3502
      7 C          60.3189   89.0291   10.1425 C.3     1  UNL1        0.1622
      8 C          61.3118   88.4119   11.0823 C.3     1  UNL1        0.1096
      9 C          63.1885   84.9562   11.6184 C.ar    1  UNL1        0.0729
     10 C          63.3706   84.4176   10.2303 C.ar    1  UNL1        0.0061
     11 C          63.8124   82.9985   10.0285 C.ar    1  UNL1        0.0002
     12 C          64.0722   82.1180   11.2147 C.ar    1  UNL1        0.0016
     13 C          63.8901   82.6566   12.6027 C.ar    1  UNL1        0.0211
     14 C          63.4482   84.0757   12.8046 C.ar    1  UNL1        0.1072
     15 N          63.2661   84.6143   14.1927 N.ar    1  UNL1       -0.1477
     16 N          61.9839   84.6306   14.9709 N.ar    1  UNL1       -0.1447
     17 C          62.2596   85.2576   16.3055 C.ar    1  UNL1        0.1446
     18 C          63.7122   85.6287   16.3520 C.ar    1  UNL1        0.1446
     19 N          64.3342   85.2311   15.0463 N.ar    1  UNL1       -0.1447
     20 C          61.8628   89.2138   12.2239 C.3     1  UNL1        0.0487
     21 C          62.9391   90.2289   11.9768 C.ar    1  UNL1       -0.0204
     22 C          63.0688   90.8711   10.6274 C.ar    1  UNL1       -0.0042
     23 C          64.1451   91.8863   10.3802 C.ar    1  UNL1       -0.0003
     24 C          65.0916   92.2593   11.4825 C.ar    1  UNL1        0.0015
     25 C          64.9619   91.6171   12.8319 C.ar    1  UNL1        0.0191
     26 C          63.8856   90.6020   13.0790 C.ar    1  UNL1       -0.0027
     27 C          65.9084   91.9902   13.9341 C.ar    1  UNL1        0.1029
     28 C          67.3886   91.9641   13.6924 C.ar    1  UNL1        0.0226
     29 C          68.3352   92.3371   14.7947 C.ar    1  UNL1        0.0241
     30 C          67.8015   92.7363   16.1386 C.ar    1  UNL1        0.1222
     31 N          66.3213   92.7623   16.3802 N.ar    1  UNL1       -0.1464
     32 N          65.3748   92.3893   15.2779 N.ar    1  UNL1       -0.1480
@<TRIPOS>BOND
     1     1     2    2
     2     2     9    1
     3     9    10   ar
     4    10    11   ar
     5    11    12   ar
     6    12    13   ar
     7    13    14   ar
     8    14    15    1
     9    15    16   ar
    10    16    17   ar
    11    17    18   ar
    12    18    19   ar
    13     2     3   am
    14     3     4    1
    15     4     5    1
    16     5     6    1
    17     6     7    1
    18     7     8    1
    19     8    20    1
    20    20    21    1
    21    21    22   ar
    22    22    23   ar
    23    23    24   ar
    24    24    25   ar
    25    25    27    1
    26    27    28   ar
    27    28    29   ar
    28    29    30   ar
    29    30    31   ar
    30    31    32   ar
    31    25    26   ar
    32    14     9   ar
    33    19    15   ar
    34     8     3    1
    35    26    21   ar
    36    32    27   ar
@<TRIPOS>MOLECULE
*****
 32 36 0 0 0
SMALL
GASTEIGER

@<TRIPOS>ATOM
      1 O          63.6333   87.4565   13.6972 O.2     1  UNL1       -0.2699
      2 C          63.0457   87.0535   12.3773 C.2     1  UNL1        0.2506
      3 N          62.3946   88.0821   11.5008 N.am    1  UNL1       -0.2723
      4 C          61.8069   87.6791   10.1809 C.3     1  UNL1        0.1257
      5 C          61.1558   88.7078    9.3045 C.3     1  UNL1        0.1637
      6 O          61.0924   90.1392    9.7480 O.3     1  UNL1       -0.3502
      7 C          61.6800   90.5422   11.0680 C.3     1  UNL1        0.1622
      8 C          62.3311   89.5136   11.9444 C.3     1  UNL1        0.1096
      9 C          63.1091   85.6219   11.9337 C.ar    1  UNL1        0.0729
     10 C          63.1412   85.2907   10.4711 C.ar    1  UNL1        0.0061
     11 C          63.2047   83.8592   10.0276 C.ar    1  UNL1        0.0002
     12 C          63.2360   82.7590   11.0466 C.ar    1  UNL1        0.0016
     13 C          63.2039   83.0903   12.5092 C.ar    1  UNL1        0.0211
     14 C          63.1405   84.5217   12.9528 C.ar    1  UNL1        0.1072
     15 N          63.1084   84.8530   14.4154 N.ar    1  UNL1       -0.1477
     16 N          61.8879   84.8791   15.2869 N.ar    1  UNL1       -0.1447
     17 C          62.3163   85.2586   16.6735 C.ar    1  UNL1        0.1446
     18 C          63.8017   85.4670   16.6588 C.ar    1  UNL1        0.1446
     19 N          64.2912   85.2164   15.2633 N.ar    1  UNL1       -0.1447
     20 C          62.9188   89.9166   13.2643 C.3     1  UNL1        0.0487
     21 C          64.2202   90.6611   13.3100 C.ar    1  UNL1       -0.0204
     22 C          65.1115   90.5404   14.5103 C.ar    1  UNL1       -0.0042
     23 C          66.4130   91.2849   14.5560 C.ar    1  UNL1       -0.0003
     24 C          66.8230   92.1501   13.4013 C.ar    1  UNL1        0.0015
     25 C          65.9316   92.2707   12.2009 C.ar    1  UNL1        0.0191
     26 C          64.6302   91.5262   12.1553 C.ar    1  UNL1       -0.0027
     27 C          66.3416   93.1359   11.0462 C.ar    1  UNL1        0.1029
     28 C          67.4131   92.6717   10.1046 C.ar    1  UNL1        0.0226
     29 C          67.8232   93.5368    8.9499 C.ar    1  UNL1        0.0241
     30 C          67.1617   94.8662    8.7367 C.ar    1  UNL1        0.1222
     31 N          66.0903   95.3303    9.6783 N.ar    1  UNL1       -0.1464
     32 N          65.6802   94.4651   10.8330 N.ar    1  UNL1       -0.1480
@<TRIPOS>BOND
     1     1     2    2
     2     2     9    1
     3     9    10   ar
     4    10    11   ar
     5    11    12   ar
     6    12    13   ar
     7    13    14   ar
     8    14    15    1
     9    15    16   ar
    10    16    17   ar
    11    17    18   ar
    12    18    19   ar
    13     2     3   am
    14     3     4    1
    15     4     5    1
    16     5     6    1
    17     6     7    1
    18     7     8    1
    19     8    20    1
    20    20    21    1
    21    21    22   ar
    22    22    23   ar
    23    23    24   ar
    24    24    25   ar
    25    25    27    1
    26    27    28   ar
    27    28    29   ar
    28    29    30   ar
    29    30    31   ar
    30    31    32   ar
    31    25    26   ar
    32    14     9   ar
    33    19    15   ar
    34     8     3    1
    35    26    21   ar
    36    32    27   ar
@<TRIPOS>MOLECULE
*****
 32 36 0 0 0
SMALL
GASTEIGER

@<TRIPOS>ATOM
      1 O          62.6559   89.9922   11.5604 O.2     1  UNL1       -0.2699
      2 C          62.6801   88.4924   11.5669 C.2     1  UNL1        0.2506
      3 N          63.3208   87.7576   12.7067 N.am    1  UNL1       -0.2723
      4 C          63.3450   86.2578   12.7132 C.3     1  UNL1        0.1257
      5 C          63.9858   85.5229   13.8532 C.3     1  UNL1        0.1637
      6 O          64.6024   86.2879   14.9866 O.3     1  UNL1       -0.3502
      7 C          64.5783   87.7877   14.9801 C.3     1  UNL1        0.1622
      8 C          63.9375   88.5225   13.8402 C.3     1  UNL1        0.1096
      9 C          62.0634   87.7275   10.4334 C.ar    1  UNL1        0.0729
     10 C          62.8869   86.7429    9.6572 C.ar    1  UNL1        0.0061
     11 C          62.2703   85.9780    8.5238 C.ar    1  UNL1        0.0002
     12 C          60.8302   86.1976    8.1666 C.ar    1  UNL1        0.0016
     13 C          60.0066   87.1822    8.9428 C.ar    1  UNL1        0.0211
     14 C          60.6232   87.9471   10.0762 C.ar    1  UNL1        0.1072
     15 N          59.7997   88.9316   10.8524 N.ar    1  UNL1       -0.1477
     16 N          59.5942   90.3764   10.5057 N.ar    1  UNL1       -0.1447
     17 C          58.7045   90.9820   11.5505 C.ar    1  UNL1        0.1446
     18 C          58.3601   89.9114   12.5431 C.ar    1  UNL1        0.1446
     19 N          59.0369   88.6442   12.1116 N.ar    1  UNL1       -0.1447
     20 C          63.9134   90.0223   13.8337 C.3     1  UNL1        0.0487
     21 C          65.1982   90.7927   13.7583 C.ar    1  UNL1       -0.0204
     22 C          66.1373   90.8012   14.9278 C.ar    1  UNL1       -0.0042
     23 C          67.4221   91.5717   14.8525 C.ar    1  UNL1       -0.0003
     24 C          67.7678   92.3337   13.6075 C.ar    1  UNL1        0.0015
     25 C          66.8286   92.3251   12.4379 C.ar    1  UNL1        0.0191
     26 C          65.5438   91.5547   12.5133 C.ar    1  UNL1       -0.0027
     27 C          67.1742   93.0871   11.1929 C.ar    1  UNL1        0.1029
     28 C          67.8412   92.3871   10.0460 C.ar    1  UNL1        0.0226
     29 C          68.1869   93.1490    8.8011 C.ar    1  UNL1        0.0241
     30 C          67.8655   94.6109    8.7029 C.ar    1  UNL1        0.1222
     31 N          67.1985   95.3109    9.8497 N.ar    1  UNL1       -0.1464
     32 N          66.8529   94.5489   11.0947 N.ar    1  UNL1       -0.1480
@<TRIPOS>BOND
     1     1     2    2
     2     2     9    1
     3     9    10   ar
     4    10    11   ar
     5    11    12   ar
     6    12    13   ar
     7    13    14   ar
     8    14    15    1
     9    15    16   ar
    10    16    17   ar
    11    17    18   ar
    12    18    19   ar
    13     2     3   am
    14     3     4    1
    15     4     5    1
    16     5     6    1
    17     6     7    1
    18     7     8    1
    19     8    20    1
    20    20    21    1
    21    21    22   ar
    22    22    23   ar
    23    23    24   ar
    24    24    25   ar
    25    25    27    1
    26    27    28   ar
    27    28    29   ar
    28    29    30   ar
    29    30    31   ar
    30    31    32   ar
    31    25    26   ar
    32    14     9   ar
    33    19    15   ar
    34     8     3    1
    35    26    21   ar
    36    32    27   ar
@<TRIPOS>MOLECULE
*****
 32 36 0 0 0
SMALL
GASTEIGER

@<TRIPOS>ATOM
      1 O          63.6461   88.3814   12.4135 O.2     1  UNL1       -0.2699
      2 C          63.5485   87.3168   13.4657 C.2     1  UNL1        0.2506
      3 N          63.4098   87.6996   14.9093 N.am    1  UNL1       -0.2723
      4 C          63.3122   86.6349   15.9615 C.3     1  UNL1        0.1257
      5 C          63.1736   87.0178   17.4052 C.3     1  UNL1        0.1637
      6 O          63.1324   88.4652   17.7967 O.3     1  UNL1       -0.3502
      7 C          63.2300   89.5298   16.7446 C.3     1  UNL1        0.1622
      8 C          63.3687   89.1470   15.3009 C.3     1  UNL1        0.1096
      9 C          63.5896   85.8693   13.0741 C.ar    1  UNL1        0.0729
     10 C          64.4322   84.9048   13.8550 C.ar    1  UNL1        0.0061
     11 C          64.4734   83.4574   13.4635 C.ar    1  UNL1        0.0002
     12 C          63.6720   82.9746   12.2911 C.ar    1  UNL1        0.0016
     13 C          62.8294   83.9391   11.5102 C.ar    1  UNL1        0.0211
     14 C          62.7882   85.3865   11.9017 C.ar    1  UNL1        0.1072
     15 N          61.9457   86.3510   11.1208 N.ar    1  UNL1       -0.1477
     16 N          60.7243   87.0621   11.6234 N.ar    1  UNL1       -0.1447
     17 C          60.2003   87.9244   10.5135 C.ar    1  UNL1        0.1446
     18 C          61.0978   87.7462    9.3249 C.ar    1  UNL1        0.1446
     19 N          62.1765   86.7738    9.7003 N.ar    1  UNL1       -0.1447
     20 C          63.4662   90.2116   14.2488 C.3     1  UNL1        0.0487
     21 C          64.6265   91.1622   14.2489 C.ar    1  UNL1       -0.0204
     22 C          65.2229   91.6174   15.5478 C.ar    1  UNL1       -0.0042
     23 C          66.3833   92.5681   15.5480 C.ar    1  UNL1       -0.0003
     24 C          66.9472   93.0634   14.2494 C.ar    1  UNL1        0.0015
     25 C          66.3508   92.6081   12.9504 C.ar    1  UNL1        0.0191
     26 C          65.1905   91.6575   12.9503 C.ar    1  UNL1       -0.0027
     27 C          66.9148   93.1034   11.6518 C.ar    1  UNL1        0.1029
     28 C          67.5894   92.1469   10.7136 C.ar    1  UNL1        0.0226
     29 C          68.1534   92.6422    9.4149 C.ar    1  UNL1        0.0241
     30 C          68.0428   94.0941    9.0544 C.ar    1  UNL1        0.1222
     31 N          67.3682   95.0506    9.9925 N.ar    1  UNL1       -0.1464
     32 N          66.8042   94.5552   11.2912 N.ar    1  UNL1       -0.1480
@<TRIPOS>BOND
     1     1     2    2
     2     2     9    1
     3     9    10   ar
     4    10    11   ar
     5    11    12   ar
     6    12    13   ar
     7    13    14   ar
     8    14    15    1
     9    15    16   ar
    10    16    17   ar
    11    17    18   ar
    12    18    19   ar
    13     2     3   am
    14     3     4    1
    15     4     5    1
    16     5     6    1
    17     6     7    1
    18     7     8    1
    19     8    20    1
    20    20    21    1
    21    21    22   ar
    22    22    23   ar
    23    23    24   ar
    24    24    25   ar
    25    25    27    1
    26    27    28   ar
    27    28    29   ar
    28    29    30   ar
    29    30    31   ar
    30    31    32   ar
    31    25    26   ar
    32    14     9   ar
    33    19    15   ar
    34     8     3    1
    35    26    21   ar
    36    32    27   ar
@<TRIPOS>MOLECULE
*****
 32 36 0 0 0
SMALL
GASTEIGER

@<TRIPOS>ATOM
      1 O          61.8319   85.6484   13.1644 O.2     1  UNL1       -0.2699
      2 C          62.3885   84.6078   12.2386 C.2     1  UNL1        0.2506
      3 N          62.6451   84.9443   10.7995 N.am    1  UNL1       -0.2723
      4 C          63.2018   83.9036    9.8737 C.3     1  UNL1        0.1257
      5 C          63.4584   84.2402    8.4346 C.3     1  UNL1        0.1637
      6 O          63.1584   85.6173    7.9214 O.3     1  UNL1       -0.3502
      7 C          62.6018   86.6580    8.8472 C.3     1  UNL1        0.1622
      8 C          62.3451   86.3215   10.2863 C.3     1  UNL1        0.1096
      9 C          62.6885   83.2305   12.7518 C.ar    1  UNL1        0.0729
     10 C          62.5590   82.0460   11.8408 C.ar    1  UNL1        0.0061
     11 C          62.8590   80.6688   12.3540 C.ar    1  UNL1        0.0002
     12 C          63.2884   80.4762   13.7782 C.ar    1  UNL1        0.0016
     13 C          63.4180   81.6608   14.6892 C.ar    1  UNL1        0.0211
     14 C          63.1180   83.0380   14.1760 C.ar    1  UNL1        0.1072
     15 N          63.2475   84.2226   15.0871 N.ar    1  UNL1       -0.1477
     16 N          62.3061   84.5892   16.1958 N.ar    1  UNL1       -0.1447
     17 C          62.8179   85.8418   16.8433 C.ar    1  UNL1        0.1446
     18 C          64.0756   86.2492   16.1347 C.ar    1  UNL1        0.1446
     19 N          64.3411   85.2485   15.0493 N.ar    1  UNL1       -0.1447
     20 C          61.7885   87.3621   11.2121 C.3     1  UNL1        0.0487
     21 C          62.3947   88.7336   11.2501 C.ar    1  UNL1       -0.0204
     22 C          62.4025   89.5846   10.0150 C.ar    1  UNL1       -0.0042
     23 C          63.0087   90.9562   10.0530 C.ar    1  UNL1       -0.0003
     24 C          63.6072   91.4767   11.3261 C.ar    1  UNL1        0.0015
     25 C          63.5994   90.6256   12.5613 C.ar    1  UNL1        0.0191
     26 C          62.9932   89.2541   12.5233 C.ar    1  UNL1       -0.0027
     27 C          64.1978   91.1460   13.8345 C.ar    1  UNL1        0.1029
     28 C          65.6272   91.6002   13.8606 C.ar    1  UNL1        0.0226
     29 C          66.2257   92.1207   15.1338 C.ar    1  UNL1        0.0241
     30 C          65.3947   92.1870   16.3809 C.ar    1  UNL1        0.1222
     31 N          63.9654   91.7328   16.3548 N.ar    1  UNL1       -0.1464
     32 N          63.3670   91.2123   15.0816 N.ar    1  UNL1       -0.1480
@<TRIPOS>BOND
     1     1     2    2
     2     2     9    1
     3     9    10   ar
     4    10    11   ar
     5    11    12   ar
     6    12    13   ar
     7    13    14   ar
     8    14    15    1
     9    15    16   ar
    10    16    17   ar
    11    17    18   ar
    12    18    19   ar
    13     2     3   am
    14     3     4    1
    15     4     5    1
    16     5     6    1
    17     6     7    1
    18     7     8    1
    19     8    20    1
    20    20    21    1
    21    21    22   ar
    22    22    23   ar
    23    23    24   ar
    24    24    25   ar
    25    25    27    1
    26    27    28   ar
    27    28    29   ar
    28    29    30   ar
    29    30    31   ar
    30    31    32   ar
    31    25    26   ar
    32    14     9   ar
    33    19    15   ar
    34     8     3    1
    35    26    21   ar
    36    32    27   ar
