@<TRIPOS>MOLECULE
*****
 31 34 0 0 0
SMALL
GASTEIGER

@<TRIPOS>ATOM
      1 N          60.8291   89.9728    9.6830 N.3     1  UNL1       -0.2863
      2 H          60.1136   90.6982    9.7312 H       1  UNL1        0.1240
      3 C          61.9697   90.4320   10.5420 C.3     1  UNL1        0.1337
      4 C          63.1808   91.1823   10.0725 C.3     1  UNL1        0.0466
      5 C          64.0591   91.4355   11.2618 C.3     1  UNL1        0.0957
      6 N          63.3909   90.8418   12.4663 N.am    1  UNL1       -0.2743
      7 C          62.0996   90.2216   12.0215 C.2     1  UNL1        0.2402
      8 O          61.1116   89.5150   12.9016 O.2     1  UNL1       -0.2734
      9 C          63.9209   90.8643   13.8693 C.3     1  UNL1        0.1202
     10 C          63.7976   89.6471   14.7373 C.ar    1  UNL1       -0.0015
     11 C          63.1199   89.7432   16.0719 C.ar    1  UNL1       -0.0026
     12 C          62.9966   88.5261   16.9399 C.ar    1  UNL1        0.0006
     13 C          63.5510   87.2128   16.4732 C.ar    1  UNL1        0.0114
     14 C          64.2288   87.1167   15.1385 C.ar    1  UNL1        0.0574
     15 CL         64.7833   85.8034   14.6718 Cl      1  UNL1       -0.0823
     16 C          64.3522   88.3338   14.2705 C.ar    1  UNL1        0.0088
     17 C          60.1457   88.6703    9.9769 C.3     1  UNL1        0.1151
     18 N          61.1309   86.6046    8.5959 N.ar    1  UNL1       -0.3070
     19 C          60.6298   85.7420    7.4757 C.ar    1  UNL1        0.1786
     20 N          59.2546   86.2141    7.1066 N.ar    1  UNL1       -0.2226
     21 C          58.9059   87.3686    7.9987 C.ar    1  UNL1        0.1147
     22 C          60.0655   87.6099    8.9191 C.ar    1  UNL1        0.0739
     23 C          62.4634   86.4833    9.2739 C.3     1  UNL1        0.1340
     24 C          63.2364   83.0890   12.1255 C.ar    1  UNL1        0.0684
     25 C          63.7240   83.0048   10.7095 C.ar    1  UNL1        0.0100
     26 C          63.4664   84.1362    9.7589 C.ar    1  UNL1       -0.0017
     27 C          62.7211   85.3519   10.2244 C.ar    1  UNL1        0.0005
     28 C          62.2334   85.4361   11.6404 C.ar    1  UNL1       -0.0017
     29 C          62.4911   84.3047   12.5909 C.ar    1  UNL1        0.0100
     30 N          63.7517   80.8262   14.0265 N.1     1  UNL1       -0.1908
     31 C          63.4940   81.9576   13.0760 C.1     1  UNL1        0.1004
@<TRIPOS>BOND
     1    30    31    3
     2    31    24    1
     3    24    25   ar
     4    25    26   ar
     5    26    27   ar
     6    27    23    1
     7    23    18    1
     8    18    19   ar
     9    19    20   ar
    10    20    21   ar
    11    21    22   ar
    12    22    17    1
    13    17     1    1
    14     3     1    1
    15     3     4    1
    16     4     5    1
    17     5     6    1
    18     6     9    1
    19     9    10    1
    20    10    11   ar
    21    11    12   ar
    22    12    13   ar
    23    13    14   ar
    24    14    15    1
    25    14    16   ar
    26     6     7   am
    27     7     8    2
    28    27    28   ar
    29    28    29   ar
    30    29    24   ar
    31    22    18   ar
    32     7     3    1
    33    16    10   ar
    34     1     2    1
@<TRIPOS>MOLECULE
*****
 31 34 0 0 0
SMALL
GASTEIGER

@<TRIPOS>ATOM
      1 N          62.2408   89.1133   11.6852 N.3     1  UNL1       -0.2863
      2 H          62.0754   88.2388   12.1835 H       1  UNL1        0.1240
      3 C          63.3022   89.8511   12.4461 C.3     1  UNL1        0.1337
      4 C          63.8981   89.4336   13.7578 C.3     1  UNL1        0.0466
      5 C          64.9184   90.4604   14.1512 C.3     1  UNL1        0.0957
      6 N          64.9529   91.5125   13.0826 N.am    1  UNL1       -0.2743
      7 C          63.9542   91.1360   12.0288 C.2     1  UNL1        0.2402
      8 O          63.6591   91.9086   10.7774 O.2     1  UNL1       -0.2734
      9 C          65.8320   92.7278   13.0700 C.3     1  UNL1        0.1202
     10 C          66.3701   93.2510   11.7712 C.ar    1  UNL1       -0.0015
     11 C          66.0103   94.6330   11.3127 C.ar    1  UNL1       -0.0026
     12 C          66.5483   95.1562   10.0139 C.ar    1  UNL1        0.0006
     13 C          67.4461   94.2972    9.1736 C.ar    1  UNL1        0.0114
     14 C          67.8059   92.9150    9.6322 C.ar    1  UNL1        0.0574
     15 CL         68.7037   92.0560    8.7919 Cl      1  UNL1       -0.0823
     16 C          67.2679   92.3919   10.9310 C.ar    1  UNL1        0.0088
     17 C          62.4613   88.7561   10.2451 C.3     1  UNL1        0.1151
     18 N          61.5708   86.6475    8.8648 N.ar    1  UNL1       -0.3070
     19 C          60.2702   86.2772    8.2155 C.ar    1  UNL1        0.1786
     20 N          59.3035   87.4022    8.4393 N.ar    1  UNL1       -0.2226
     21 C          60.0067   88.4678    9.2268 C.ar    1  UNL1        0.1147
     22 C          61.4079   88.0013    9.4898 C.ar    1  UNL1        0.0739
     23 C          62.8156   85.8108    8.8854 C.3     1  UNL1        0.1340
     24 C          63.4035   82.7310   12.1133 C.ar    1  UNL1        0.0684
     25 C          63.9938   82.5126   10.7518 C.ar    1  UNL1        0.0100
     26 C          63.7979   83.5392    9.6758 C.ar    1  UNL1       -0.0017
     27 C          63.0115   84.7842    9.9613 C.ar    1  UNL1        0.0005
     28 C          62.4211   85.0026   11.3228 C.ar    1  UNL1       -0.0017
     29 C          62.6171   83.9760   12.3988 C.ar    1  UNL1        0.0100
     30 N          63.7954   80.6779   14.2652 N.1     1  UNL1       -0.1908
     31 C          63.5994   81.7044   13.1892 C.1     1  UNL1        0.1004
@<TRIPOS>BOND
     1    30    31    3
     2    31    24    1
     3    24    25   ar
     4    25    26   ar
     5    26    27   ar
     6    27    23    1
     7    23    18    1
     8    18    19   ar
     9    19    20   ar
    10    20    21   ar
    11    21    22   ar
    12    22    17    1
    13    17     1    1
    14     3     1    1
    15     3     4    1
    16     4     5    1
    17     5     6    1
    18     6     9    1
    19     9    10    1
    20    10    11   ar
    21    11    12   ar
    22    12    13   ar
    23    13    14   ar
    24    14    15    1
    25    14    16   ar
    26     6     7   am
    27     7     8    2
    28    27    28   ar
    29    28    29   ar
    30    29    24   ar
    31    22    18   ar
    32     7     3    1
    33    16    10   ar
    34     1     2    1
@<TRIPOS>MOLECULE
*****
 31 34 0 0 0
SMALL
GASTEIGER

@<TRIPOS>ATOM
      1 N          61.0851   89.0007   11.6820 N.3     1  UNL1       -0.2863
      2 H          60.9953   88.9949   12.6981 H       1  UNL1        0.1240
      3 C          62.1415   90.0113   11.3466 C.3     1  UNL1        0.1337
      4 C          62.3439   90.6654   10.0120 C.3     1  UNL1        0.0466
      5 C          63.5086   91.6036   10.1274 C.3     1  UNL1        0.0957
      6 N          64.0260   91.5293   11.5333 N.am    1  UNL1       -0.2743
      7 C          63.1812   90.5453   12.2868 C.2     1  UNL1        0.2402
      8 O          63.3468   90.1623   13.7277 O.2     1  UNL1       -0.2734
      9 C          65.1848   92.3033   12.0883 C.3     1  UNL1        0.1202
     10 C          66.0982   93.0524   11.1638 C.ar    1  UNL1       -0.0015
     11 C          65.9791   94.5421   11.0365 C.ar    1  UNL1       -0.0026
     12 C          66.8924   95.2913   10.1120 C.ar    1  UNL1        0.0006
     13 C          67.9248   94.5505    9.3148 C.ar    1  UNL1        0.0114
     14 C          68.0438   93.0607    9.4421 C.ar    1  UNL1        0.0574
     15 CL         69.0762   92.3200    8.6449 Cl      1  UNL1       -0.0823
     16 C          67.1305   92.3116   10.3666 C.ar    1  UNL1        0.0088
     17 C          61.2501   87.5727   11.2537 C.3     1  UNL1        0.1151
     18 N          61.4746   86.2410    8.9469 N.ar    1  UNL1       -0.3070
     19 C          60.6048   86.0587    7.7385 C.ar    1  UNL1        0.1786
     20 N          59.3394   86.8341    7.9569 N.ar    1  UNL1       -0.2226
     21 C          59.4272   87.4956    9.3003 C.ar    1  UNL1        0.1147
     22 C          60.7467   87.1291    9.9122 C.ar    1  UNL1        0.0739
     23 C          62.8335   85.6406    9.1538 C.3     1  UNL1        0.1340
     24 C          63.4225   82.4134   12.2341 C.ar    1  UNL1        0.0684
     25 C          62.6094   83.6290   12.5675 C.ar    1  UNL1        0.0100
     26 C          62.4131   84.7048   11.5407 C.ar    1  UNL1       -0.0017
     27 C          63.0298   84.5649   10.1806 C.ar    1  UNL1        0.0005
     28 C          63.8429   83.3493    9.8472 C.ar    1  UNL1       -0.0017
     29 C          64.0392   82.2736   10.8740 C.ar    1  UNL1        0.0100
     30 N          63.8151   80.2620   14.2877 N.1     1  UNL1       -0.1908
     31 C          63.6188   81.3377   13.2609 C.1     1  UNL1        0.1004
@<TRIPOS>BOND
     1    30    31    3
     2    31    24    1
     3    24    25   ar
     4    25    26   ar
     5    26    27   ar
     6    27    23    1
     7    23    18    1
     8    18    19   ar
     9    19    20   ar
    10    20    21   ar
    11    21    22   ar
    12    22    17    1
    13    17     1    1
    14     3     1    1
    15     3     4    1
    16     4     5    1
    17     5     6    1
    18     6     9    1
    19     9    10    1
    20    10    11   ar
    21    11    12   ar
    22    12    13   ar
    23    13    14   ar
    24    14    15    1
    25    14    16   ar
    26     6     7   am
    27     7     8    2
    28    27    28   ar
    29    28    29   ar
    30    29    24   ar
    31    22    18   ar
    32     7     3    1
    33    16    10   ar
    34     1     2    1
@<TRIPOS>MOLECULE
*****
 31 34 0 0 0
SMALL
GASTEIGER

@<TRIPOS>ATOM
      1 N          64.3050   84.5483   15.6712 N.3     1  UNL1       -0.2863
      2 H          65.2893   84.5147   15.9363 H       1  UNL1        0.1240
      3 C          63.7515   85.8287   16.2228 C.3     1  UNL1        0.1337
      4 C          62.8629   85.9599   17.4241 C.3     1  UNL1        0.0466
      5 C          62.5516   87.4150   17.6137 C.3     1  UNL1        0.0957
      6 N          63.2479   88.1830   16.5296 N.am    1  UNL1       -0.2743
      7 C          63.9894   87.2026   15.6700 C.2     1  UNL1        0.2402
      8 O          64.8226   87.5374   14.4684 O.2     1  UNL1       -0.2734
      9 C          63.2093   89.6702   16.3386 C.3     1  UNL1        0.1202
     10 C          63.6993   90.2747   15.0561 C.ar    1  UNL1       -0.0015
     11 C          64.9648   91.0797   15.0419 C.ar    1  UNL1       -0.0026
     12 C          65.4548   91.6841   13.7595 C.ar    1  UNL1        0.0006
     13 C          64.6792   91.4836   12.4914 C.ar    1  UNL1        0.0114
     14 C          63.4136   90.6786   12.5056 C.ar    1  UNL1        0.0574
     15 CL         62.6380   90.4780   11.2375 Cl      1  UNL1       -0.0823
     16 C          62.9236   90.0741   13.7880 C.ar    1  UNL1        0.0088
     17 C          64.2441   84.2784   14.1969 C.3     1  UNL1        0.1151
     18 N          63.4220   82.6424   12.2494 N.ar    1  UNL1       -0.3070
     19 C          62.6874   81.3355   12.2016 C.ar    1  UNL1        0.1786
     20 N          62.3821   80.9235   13.6113 N.ar    1  UNL1       -0.2226
     21 C          62.9282   81.9758   14.5304 C.ar    1  UNL1        0.1147
     22 C          63.5708   83.0381   13.6887 C.ar    1  UNL1        0.0739
     23 C          63.9203   83.4175   11.0659 C.3     1  UNL1        0.1340
     24 C          61.3465   86.6179    9.2266 C.ar    1  UNL1        0.0684
     25 C          62.3357   85.8726    8.3805 C.ar    1  UNL1        0.0100
     26 C          63.1936   84.8058    8.9935 C.ar    1  UNL1       -0.0017
     27 C          63.0624   84.4843   10.4528 C.ar    1  UNL1        0.0005
     28 C          62.0732   85.2297   11.2989 C.ar    1  UNL1       -0.0017
     29 C          61.2153   86.2965   10.6858 C.ar    1  UNL1        0.0100
     30 N          59.6306   88.7516    8.0004 N.1     1  UNL1       -0.1908
     31 C          60.4886   87.6848    8.6135 C.1     1  UNL1        0.1004
@<TRIPOS>BOND
     1    30    31    3
     2    31    24    1
     3    24    25   ar
     4    25    26   ar
     5    26    27   ar
     6    27    23    1
     7    23    18    1
     8    18    19   ar
     9    19    20   ar
    10    20    21   ar
    11    21    22   ar
    12    22    17    1
    13    17     1    1
    14     3     1    1
    15     3     4    1
    16     4     5    1
    17     5     6    1
    18     6     9    1
    19     9    10    1
    20    10    11   ar
    21    11    12   ar
    22    12    13   ar
    23    13    14   ar
    24    14    15    1
    25    14    16   ar
    26     6     7   am
    27     7     8    2
    28    27    28   ar
    29    28    29   ar
    30    29    24   ar
    31    22    18   ar
    32     7     3    1
    33    16    10   ar
    34     1     2    1
@<TRIPOS>MOLECULE
*****
 31 34 0 0 0
SMALL
GASTEIGER

@<TRIPOS>ATOM
      1 N          63.2976   90.9028   13.9191 N.3     1  UNL1       -0.2863
      2 H          63.7236   91.8254   14.0068 H       1  UNL1        0.1240
      3 C          62.8571   90.7631   12.4921 C.3     1  UNL1        0.1337
      4 C          63.6236   91.2151   11.2845 C.3     1  UNL1        0.0466
      5 C          62.8130   90.8783   10.0682 C.3     1  UNL1        0.0957
      6 N          61.5456   90.2182   10.5240 N.am    1  UNL1       -0.2743
      7 C          61.5728   90.1470   12.0221 C.2     1  UNL1        0.2402
      8 O          60.5035   89.5624   12.8966 O.2     1  UNL1       -0.2734
      9 C          60.4443   89.7172    9.6375 C.3     1  UNL1        0.1202
     10 C          60.5369   88.3508    9.0255 C.ar    1  UNL1       -0.0015
     11 C          59.4482   87.8602    8.1178 C.ar    1  UNL1       -0.0026
     12 C          59.5409   86.4939    7.5058 C.ar    1  UNL1        0.0006
     13 C          60.7222   85.6182    7.8015 C.ar    1  UNL1        0.0114
     14 C          61.8110   86.1088    8.7092 C.ar    1  UNL1        0.0574
     15 CL         62.9924   85.2331    9.0049 Cl      1  UNL1       -0.0823
     16 C          61.7184   87.4751    9.3212 C.ar    1  UNL1        0.0088
     17 C          64.2684   89.9202   14.5041 C.3     1  UNL1        0.1151
     18 N          63.9117   87.4225   15.3869 N.ar    1  UNL1       -0.3070
     19 C          63.3190   86.8079   16.6202 C.ar    1  UNL1        0.1786
     20 N          62.8413   87.9188   17.5080 N.ar    1  UNL1       -0.2226
     21 C          63.1389   89.2199   16.8233 C.ar    1  UNL1        0.1147
     22 C          63.8004   88.9132   15.5124 C.ar    1  UNL1        0.0739
     23 C          64.5106   86.6773   14.2311 C.3     1  UNL1        0.1340
     24 C          63.1925   82.4675   13.3423 C.ar    1  UNL1        0.0684
     25 C          64.0980   82.7399   14.5067 C.ar    1  UNL1        0.0100
     26 C          64.5373   84.1431   14.8030 C.ar    1  UNL1       -0.0017
     27 C          64.0712   85.2740   13.9348 C.ar    1  UNL1        0.0005
     28 C          63.1658   85.0017   12.7704 C.ar    1  UNL1       -0.0017
     29 C          62.7264   83.5984   12.4741 C.ar    1  UNL1        0.0100
     30 N          62.3138   79.6609   12.7498 N.1     1  UNL1       -0.1908
     31 C          62.7532   81.0642   13.0460 C.1     1  UNL1        0.1004
@<TRIPOS>BOND
     1    30    31    3
     2    31    24    1
     3    24    25   ar
     4    25    26   ar
     5    26    27   ar
     6    27    23    1
     7    23    18    1
     8    18    19   ar
     9    19    20   ar
    10    20    21   ar
    11    21    22   ar
    12    22    17    1
    13    17     1    1
    14     3     1    1
    15     3     4    1
    16     4     5    1
    17     5     6    1
    18     6     9    1
    19     9    10    1
    20    10    11   ar
    21    11    12   ar
    22    12    13   ar
    23    13    14   ar
    24    14    15    1
    25    14    16   ar
    26     6     7   am
    27     7     8    2
    28    27    28   ar
    29    28    29   ar
    30    29    24   ar
    31    22    18   ar
    32     7     3    1
    33    16    10   ar
    34     1     2    1
@<TRIPOS>MOLECULE
*****
 31 34 0 0 0
SMALL
GASTEIGER

@<TRIPOS>ATOM
      1 N          63.8935   90.8903   12.5555 N.3     1  UNL1       -0.2863
      2 H          64.7546   90.9872   12.0175 H       1  UNL1        0.1240
      3 C          62.9362   90.1105   11.7037 C.3     1  UNL1        0.1337
      4 C          62.0731   90.6678   10.6108 C.3     1  UNL1        0.0466
      5 C          61.2775   89.5382   10.0270 C.3     1  UNL1        0.0957
      6 N          61.6489   88.2828   10.7590 N.am    1  UNL1       -0.2743
      7 C          62.6740   88.6365   11.7953 C.2     1  UNL1        0.2402
      8 O          63.3230   87.6835   12.7548 O.2     1  UNL1       -0.2734
      9 C          61.0927   86.9140   10.5003 C.3     1  UNL1        0.1202
     10 C          62.0196   85.7447   10.3456 C.ar    1  UNL1       -0.0015
     11 C          62.7079   85.5016    9.0353 C.ar    1  UNL1       -0.0026
     12 C          63.6348   84.3325    8.8805 C.ar    1  UNL1        0.0006
     13 C          63.8732   83.4064   10.0361 C.ar    1  UNL1        0.0114
     14 C          63.1848   83.6495   11.3465 C.ar    1  UNL1        0.0574
     15 CL         63.4233   82.7234   12.5021 Cl      1  UNL1       -0.0823
     16 C          62.2580   84.8187   11.5013 C.ar    1  UNL1        0.0088
     17 C          64.2841   90.3752   13.9090 C.3     1  UNL1        0.1151
     18 N          66.3078   91.9280   14.7082 N.ar    1  UNL1       -0.3070
     19 C          66.5960   92.7496   15.9297 C.ar    1  UNL1        0.1786
     20 N          65.4318   92.6128   16.8657 N.ar    1  UNL1       -0.2226
     21 C          64.4240   91.7066   16.2226 C.ar    1  UNL1        0.1147
     22 C          64.9654   91.2834   14.8893 C.ar    1  UNL1        0.0739
     23 C          67.2044   91.7774   13.5152 C.3     1  UNL1        0.1340
     24 C          66.7244   94.5194    9.9794 C.ar    1  UNL1        0.0684
     25 C          67.4559   93.2189    9.8261 C.ar    1  UNL1        0.0100
     26 C          67.6159   92.3049   11.0047 C.ar    1  UNL1       -0.0017
     27 C          67.0444   92.6914   12.3366 C.ar    1  UNL1        0.0005
     28 C          66.3129   93.9919   12.4899 C.ar    1  UNL1       -0.0017
     29 C          66.1529   94.9059   11.3113 C.ar    1  UNL1        0.0100
     30 N          66.4045   96.3473    7.6223 N.1     1  UNL1       -0.1908
     31 C          66.5644   95.4334    8.8009 C.1     1  UNL1        0.1004
@<TRIPOS>BOND
     1    30    31    3
     2    31    24    1
     3    24    25   ar
     4    25    26   ar
     5    26    27   ar
     6    27    23    1
     7    23    18    1
     8    18    19   ar
     9    19    20   ar
    10    20    21   ar
    11    21    22   ar
    12    22    17    1
    13    17     1    1
    14     3     1    1
    15     3     4    1
    16     4     5    1
    17     5     6    1
    18     6     9    1
    19     9    10    1
    20    10    11   ar
    21    11    12   ar
    22    12    13   ar
    23    13    14   ar
    24    14    15    1
    25    14    16   ar
    26     6     7   am
    27     7     8    2
    28    27    28   ar
    29    28    29   ar
    30    29    24   ar
    31    22    18   ar
    32     7     3    1
    33    16    10   ar
    34     1     2    1
@<TRIPOS>MOLECULE
*****
 31 34 0 0 0
SMALL
GASTEIGER

@<TRIPOS>ATOM
      1 N          63.8469   88.2112   14.5403 N.3     1  UNL1       -0.2863
      2 H          64.3068   88.4763   15.4112 H       1  UNL1        0.1240
      3 C          63.9635   89.3854   13.6142 C.3     1  UNL1        0.1337
      4 C          63.1913   89.5867   12.3441 C.3     1  UNL1        0.0466
      5 C          63.6235   90.8901   11.7405 C.3     1  UNL1        0.0957
      6 N          64.6627   91.4943   12.6376 N.am    1  UNL1       -0.2743
      7 C          64.8729   90.5644   13.7956 C.2     1  UNL1        0.2402
      8 O          65.8253   90.7762   14.9350 O.2     1  UNL1       -0.2734
      9 C          65.3680   92.7994   12.4157 C.3     1  UNL1        0.1202
     10 C          66.3260   92.9492   11.2711 C.ar    1  UNL1       -0.0015
     11 C          67.4485   91.9692   11.0996 C.ar    1  UNL1       -0.0026
     12 C          68.4064   92.1189    9.9551 C.ar    1  UNL1        0.0006
     13 C          68.2418   93.2486    8.9821 C.ar    1  UNL1        0.0114
     14 C          67.1193   94.2286    9.1537 C.ar    1  UNL1        0.0574
     15 CL         66.9547   95.3583    8.1808 Cl      1  UNL1       -0.0823
     16 C          66.1613   94.0789   10.2982 C.ar    1  UNL1        0.0088
     17 C          64.4121   86.8808   14.1396 C.3     1  UNL1        0.1151
     18 N          63.2945   84.5282   13.5386 N.ar    1  UNL1       -0.3070
     19 C          62.5847   83.4611   14.3181 C.ar    1  UNL1        0.1786
     20 N          62.5340   83.8922   15.7540 N.ar    1  UNL1       -0.2226
     21 C          63.2123   85.2257   15.8619 C.ar    1  UNL1        0.1147
     22 C          63.6824   85.6188   14.4928 C.ar    1  UNL1        0.0739
     23 C          63.5683   84.5082   12.0640 C.3     1  UNL1        0.1340
     24 C          60.9451   86.8505    9.2565 C.ar    1  UNL1        0.0684
     25 C          61.9898   85.9238    8.7092 C.ar    1  UNL1        0.0100
     26 C          62.8642   85.1430    9.6450 C.ar    1  UNL1       -0.0017
     27 C          62.6939   85.2890   11.1281 C.ar    1  UNL1        0.0005
     28 C          61.6491   86.2157   11.6754 C.ar    1  UNL1       -0.0017
     29 C          60.7747   86.9965   10.7396 C.ar    1  UNL1        0.0100
     30 N          59.1962   88.4121    7.3848 N.1     1  UNL1       -0.1908
     31 C          60.0706   87.6313    8.3206 C.1     1  UNL1        0.1004
@<TRIPOS>BOND
     1    30    31    3
     2    31    24    1
     3    24    25   ar
     4    25    26   ar
     5    26    27   ar
     6    27    23    1
     7    23    18    1
     8    18    19   ar
     9    19    20   ar
    10    20    21   ar
    11    21    22   ar
    12    22    17    1
    13    17     1    1
    14     3     1    1
    15     3     4    1
    16     4     5    1
    17     5     6    1
    18     6     9    1
    19     9    10    1
    20    10    11   ar
    21    11    12   ar
    22    12    13   ar
    23    13    14   ar
    24    14    15    1
    25    14    16   ar
    26     6     7   am
    27     7     8    2
    28    27    28   ar
    29    28    29   ar
    30    29    24   ar
    31    22    18   ar
    32     7     3    1
    33    16    10   ar
    34     1     2    1
@<TRIPOS>MOLECULE
*****
 31 34 0 0 0
SMALL
GASTEIGER

@<TRIPOS>ATOM
      1 N          63.6665   83.1134   10.3558 N.3     1  UNL1       -0.2863
      2 H          62.9088   82.4515   10.1881 H       1  UNL1        0.1240
      3 C          63.1366   84.4742   10.0131 C.3     1  UNL1        0.1337
      4 C          63.1136   85.0931    8.6469 C.3     1  UNL1        0.0466
      5 C          62.4994   86.4564    8.7659 C.3     1  UNL1        0.0957
      6 N          62.1428   86.6800   10.2056 N.am    1  UNL1       -0.2743
      7 C          62.5366   85.4550   10.9764 C.2     1  UNL1        0.2402
      8 O          62.3611   85.2472   12.4516 O.2     1  UNL1       -0.2734
      9 C          61.5044   87.9123   10.7746 C.3     1  UNL1        0.1202
     10 C          62.3222   89.1523   10.9838 C.ar    1  UNL1       -0.0015
     11 C          62.3746   90.2050    9.9166 C.ar    1  UNL1       -0.0026
     12 C          63.1924   91.4450   10.1257 C.ar    1  UNL1        0.0006
     13 C          63.9577   91.6322   11.4021 C.ar    1  UNL1        0.0114
     14 C          63.9053   90.5795   12.4693 C.ar    1  UNL1        0.0574
     15 CL         64.6706   90.7667   13.7457 Cl      1  UNL1       -0.0823
     16 C          63.0875   89.3395   12.2602 C.ar    1  UNL1        0.0088
     17 C          64.1860   82.8364   11.7354 C.3     1  UNL1        0.1151
     18 N          63.3690   82.6094   14.2704 N.ar    1  UNL1       -0.3070
     19 C          62.2331   81.9139   14.9604 C.ar    1  UNL1        0.1786
     20 N          61.4186   81.2088   13.9166 N.ar    1  UNL1       -0.2226
     21 C          62.0510   81.4686   12.5814 C.ar    1  UNL1        0.1147
     22 C          63.2564   82.3342   12.8001 C.ar    1  UNL1        0.0739
     23 C          64.4309   83.4352   14.9340 C.3     1  UNL1        0.1340
     24 C          63.5828   87.7089   16.0590 C.ar    1  UNL1        0.0684
     25 C          64.4953   87.4032   14.9085 C.ar    1  UNL1        0.0100
     26 C          64.7780   85.9786   14.5335 C.ar    1  UNL1       -0.0017
     27 C          64.1482   84.8597   15.3090 C.ar    1  UNL1        0.0005
     28 C          63.2357   85.1655   16.4596 C.ar    1  UNL1       -0.0017
     29 C          62.9530   86.5901   16.8346 C.ar    1  UNL1        0.0100
     30 N          63.0173   90.5581   16.8091 N.1     1  UNL1       -0.1908
     31 C          63.3001   89.1335   16.4341 C.1     1  UNL1        0.1004
@<TRIPOS>BOND
     1    30    31    3
     2    31    24    1
     3    24    25   ar
     4    25    26   ar
     5    26    27   ar
     6    27    23    1
     7    23    18    1
     8    18    19   ar
     9    19    20   ar
    10    20    21   ar
    11    21    22   ar
    12    22    17    1
    13    17     1    1
    14     3     1    1
    15     3     4    1
    16     4     5    1
    17     5     6    1
    18     6     9    1
    19     9    10    1
    20    10    11   ar
    21    11    12   ar
    22    12    13   ar
    23    13    14   ar
    24    14    15    1
    25    14    16   ar
    26     6     7   am
    27     7     8    2
    28    27    28   ar
    29    28    29   ar
    30    29    24   ar
    31    22    18   ar
    32     7     3    1
    33    16    10   ar
    34     1     2    1
@<TRIPOS>MOLECULE
*****
 31 34 0 0 0
SMALL
GASTEIGER

@<TRIPOS>ATOM
      1 N          62.6838   91.1393   12.5005 N.3     1  UNL1       -0.2863
      2 H          62.5546   92.1154   12.2342 H       1  UNL1        0.1240
      3 C          61.7855   90.3266   11.6158 C.3     1  UNL1        0.1337
      4 C          60.6940   90.8621   10.7373 C.3     1  UNL1        0.0466
      5 C          60.0550   89.7022   10.0329 C.3     1  UNL1        0.0957
      6 N          60.7516   88.4499   10.4760 N.am    1  UNL1       -0.2743
      7 C          61.8212   88.8358   11.4543 C.2     1  UNL1        0.2402
      8 O          62.7613   87.8959   12.1491 O.2     1  UNL1       -0.2734
      9 C          60.4344   87.0563   10.0208 C.3     1  UNL1        0.1202
     10 C          61.5278   86.0348    9.9144 C.ar    1  UNL1       -0.0015
     11 C          62.2673   85.8597    8.6212 C.ar    1  UNL1       -0.0026
     12 C          63.3606   84.8383    8.5148 C.ar    1  UNL1        0.0006
     13 C          63.7144   83.9921    9.7017 C.ar    1  UNL1        0.0114
     14 C          62.9749   84.1672   10.9949 C.ar    1  UNL1        0.0574
     15 CL         63.3287   83.3209   12.1818 Cl      1  UNL1       -0.0823
     16 C          61.8816   85.1886   11.1013 C.ar    1  UNL1        0.0088
     17 C          64.1619   90.8839   12.5061 C.3     1  UNL1        0.1151
     18 N          64.8424   91.4002   15.0390 N.ar    1  UNL1       -0.3070
     19 C          65.9318   92.1872   15.7052 C.ar    1  UNL1        0.1786
     20 N          66.7909   92.7893   14.6330 N.ar    1  UNL1       -0.2226
     21 C          66.2324   92.3743   13.3041 C.ar    1  UNL1        0.1147
     22 C          65.0282   91.5158   13.5549 C.ar    1  UNL1        0.0739
     23 C          63.7577   90.6323   15.7345 C.3     1  UNL1        0.1340
     24 C          63.8096   86.1328   15.7005 C.ar    1  UNL1        0.0684
     25 C          64.5233   86.8992   14.6266 C.ar    1  UNL1        0.0100
     26 C          64.5060   88.3990   14.6380 C.ar    1  UNL1       -0.0017
     27 C          63.7750   89.1325   15.7232 C.ar    1  UNL1        0.0005
     28 C          63.0613   88.3660   16.7970 C.ar    1  UNL1       -0.0017
     29 C          63.0786   86.8662   16.7857 C.ar    1  UNL1        0.0100
     30 N          63.8442   83.1330   15.6778 N.1     1  UNL1       -0.1908
     31 C          63.8269   84.6329   15.6892 C.1     1  UNL1        0.1004
@<TRIPOS>BOND
     1    30    31    3
     2    31    24    1
     3    24    25   ar
     4    25    26   ar
     5    26    27   ar
     6    27    23    1
     7    23    18    1
     8    18    19   ar
     9    19    20   ar
    10    20    21   ar
    11    21    22   ar
    12    22    17    1
    13    17     1    1
    14     3     1    1
    15     3     4    1
    16     4     5    1
    17     5     6    1
    18     6     9    1
    19     9    10    1
    20    10    11   ar
    21    11    12   ar
    22    12    13   ar
    23    13    14   ar
    24    14    15    1
    25    14    16   ar
    26     6     7   am
    27     7     8    2
    28    27    28   ar
    29    28    29   ar
    30    29    24   ar
    31    22    18   ar
    32     7     3    1
    33    16    10   ar
    34     1     2    1
