@<TRIPOS>MOLECULE
*****
 31 34 0 0 0
SMALL
GASTEIGER

@<TRIPOS>ATOM
      1 C          66.8989   92.6637   12.8298 C.ar    1  UNL1        0.1564
      2 C          67.1756   93.6701   11.7525 C.ar    1  UNL1        0.0385
      3 C          66.2274   93.8141   10.5991 C.ar    1  UNL1        0.0034
      4 C          65.0026   92.9516   10.5230 C.ar    1  UNL1        0.0065
      5 C          64.7259   91.9451   11.6003 C.ar    1  UNL1        0.0769
      6 C          63.5010   91.0826   11.5242 C.ar    1  UNL1        0.2646
      7 O          62.5529   91.2265   10.3708 O.2     1  UNL1       -0.2668
      8 N          63.2244   90.0761   12.6014 N.ar    1  UNL1       -0.2644
      9 C          64.1725   89.9322   13.7548 C.ar    1  UNL1        0.2037
     10 N          65.3974   90.7947   13.8309 N.ar    1  UNL1       -0.2117
     11 C          65.6741   91.8012   12.7536 C.ar    1  UNL1        0.1225
     12 N          63.8958   88.9257   14.8321 N.pl3   1  UNL1       -0.2781
     13 C          63.2083   89.3498   16.0960 C.3     1  UNL1        0.0937
     14 C          62.9316   88.3434   17.1732 C.3     1  UNL1        0.0229
     15 C          63.3424   86.9129   16.9866 C.3     1  UNL1        0.0190
     16 C          64.0299   86.4888   15.7227 C.3     1  UNL1        0.0710
     17 N          64.4407   85.0582   15.5360 N.3     1  UNL1       -0.3208
     18 C          64.3066   87.4952   14.6454 C.3     1  UNL1        0.1089
     19 H          64.1769   84.5184   16.3603 H       1  UNL1        0.1189
     20 H          65.4512   85.0088   15.4063 H       1  UNL1        0.1189
     21 C          67.6634   93.3571   15.2140 C.3     1  UNL1        0.2525
     22 O          67.8471   92.5198   13.9831 O.3     1  UNL1       -0.4699
     23 C          61.9995   89.2136   12.5253 C.3     1  UNL1        0.1391
     24 C          61.6333   88.5431   11.2344 C.ar    1  UNL1        0.0102
     25 C          62.4640   87.4058   10.7181 C.ar    1  UNL1       -0.0017
     26 C          62.0979   86.7353    9.4272 C.ar    1  UNL1       -0.0002
     27 C          60.9011   87.2022    8.6526 C.ar    1  UNL1        0.0007
     28 C          60.0705   88.3395    9.1690 C.ar    1  UNL1        0.0100
     29 C          60.4367   89.0100   10.4599 C.ar    1  UNL1        0.0663
     30 C          59.6061   90.1472   10.9763 C.1     1  UNL1        0.1002
     31 N          58.7755   91.2846   11.4927 N.1     1  UNL1       -0.1908
@<TRIPOS>BOND
     1    21    22    1
     2    22     1    1
     3     1     2   ar
     4     2     3   ar
     5     3     4   ar
     6     4     5   ar
     7     5     6   ar
     8     6     7    2
     9     6     8   ar
    10     8    23    1
    11    23    24    1
    12    24    25   ar
    13    25    26   ar
    14    26    27   ar
    15    27    28   ar
    16    28    29   ar
    17    29    30    1
    18    30    31    3
    19     8     9   ar
    20     9    12    1
    21    12    13    1
    22    13    14    1
    23    14    15    1
    24    15    16    1
    25    16    17    1
    26    16    18    1
    27     9    10   ar
    28    10    11   ar
    29    11     1   ar
    30    11     5   ar
    31    29    24   ar
    32    18    12    1
    33    17    19    1
    34    17    20    1
@<TRIPOS>MOLECULE
*****
 31 34 0 0 0
SMALL
GASTEIGER

@<TRIPOS>ATOM
      1 C          63.5839   82.9355   13.6226 C.ar    1  UNL1        0.1564
      2 C          64.1248   82.9554   15.0215 C.ar    1  UNL1        0.0385
      3 C          64.4038   84.2641   15.6993 C.ar    1  UNL1        0.0034
      4 C          64.1418   85.5530   14.9781 C.ar    1  UNL1        0.0065
      5 C          63.6009   85.5331   13.5792 C.ar    1  UNL1        0.0769
      6 C          63.3388   86.8220   12.8580 C.ar    1  UNL1        0.2646
      7 O          63.6178   88.1308   13.5357 O.2     1  UNL1       -0.2668
      8 N          62.7979   86.8022   11.4591 N.ar    1  UNL1       -0.2644
      9 C          62.5189   85.4934   10.7814 C.ar    1  UNL1        0.2037
     10 N          62.7809   84.2045   11.5025 N.ar    1  UNL1       -0.2117
     11 C          63.3219   84.2244   12.9015 C.ar    1  UNL1        0.1225
     12 N          61.9779   85.4736    9.3824 N.pl3   1  UNL1       -0.2781
     13 C          62.8112   84.9217    8.2638 C.3     1  UNL1        0.0937
     14 C          62.2703   84.9019    6.8649 C.3     1  UNL1        0.0229
     15 C          60.8961   85.4339    6.5846 C.3     1  UNL1        0.0190
     16 C          60.0629   85.9857    7.7032 C.3     1  UNL1        0.0710
     17 N          58.6887   86.5178    7.4228 N.3     1  UNL1       -0.3208
     18 C          60.6038   86.0056    9.1021 C.3     1  UNL1        0.1089
     19 H          58.4854   86.4267    6.4274 H       1  UNL1        0.1189
     20 H          58.6435   87.5010    7.6905 H       1  UNL1        0.1189
     21 C          62.1462   80.7841   13.3891 C.3     1  UNL1        0.2525
     22 O          63.3049   81.6267   12.9449 O.3     1  UNL1       -0.4699
     23 C          62.5359   88.0911   10.7379 C.3     1  UNL1        0.1391
     24 C          61.3340   88.9166   11.0900 C.ar    1  UNL1        0.0102
     25 C          60.0595   88.2454   11.5086 C.ar    1  UNL1       -0.0017
     26 C          58.8577   89.0709   11.8607 C.ar    1  UNL1       -0.0002
     27 C          58.9303   90.5678   11.7943 C.ar    1  UNL1        0.0007
     28 C          60.2048   91.2389   11.3757 C.ar    1  UNL1        0.0100
     29 C          61.4066   90.4134   11.0236 C.ar    1  UNL1        0.0663
     30 C          62.6811   91.0846   10.6050 C.1     1  UNL1        0.1002
     31 N          63.9556   91.7558   10.1864 N.1     1  UNL1       -0.1908
@<TRIPOS>BOND
     1    21    22    1
     2    22     1    1
     3     1     2   ar
     4     2     3   ar
     5     3     4   ar
     6     4     5   ar
     7     5     6   ar
     8     6     7    2
     9     6     8   ar
    10     8    23    1
    11    23    24    1
    12    24    25   ar
    13    25    26   ar
    14    26    27   ar
    15    27    28   ar
    16    28    29   ar
    17    29    30    1
    18    30    31    3
    19     8     9   ar
    20     9    12    1
    21    12    13    1
    22    13    14    1
    23    14    15    1
    24    15    16    1
    25    16    17    1
    26    16    18    1
    27     9    10   ar
    28    10    11   ar
    29    11     1   ar
    30    11     5   ar
    31    29    24   ar
    32    18    12    1
    33    17    19    1
    34    17    20    1
@<TRIPOS>MOLECULE
*****
 31 34 0 0 0
SMALL
GASTEIGER

@<TRIPOS>ATOM
      1 C          60.3706   87.1999    8.9314 C.ar    1  UNL1        0.1564
      2 C          59.9421   88.5598    8.4657 C.ar    1  UNL1        0.0385
      3 C          60.4531   89.7864    9.1616 C.ar    1  UNL1        0.0034
      4 C          61.3926   89.6531   10.3233 C.ar    1  UNL1        0.0065
      5 C          61.8212   88.2931   10.7889 C.ar    1  UNL1        0.0769
      6 C          62.7607   88.1597   11.9506 C.ar    1  UNL1        0.2646
      7 O          63.2718   89.3863   12.6466 O.2     1  UNL1       -0.2668
      8 N          63.1893   86.7998   12.4163 N.ar    1  UNL1       -0.2644
      9 C          62.6782   85.5732   11.7204 C.ar    1  UNL1        0.2037
     10 N          61.7387   85.7066   10.5588 N.ar    1  UNL1       -0.2117
     11 C          61.3101   87.0665   10.0930 C.ar    1  UNL1        0.1225
     12 N          63.1068   84.2132   12.1861 N.pl3   1  UNL1       -0.2781
     13 C          64.3063   83.5539   11.5726 C.3     1  UNL1        0.0937
     14 C          64.7349   82.1940   12.0382 C.3     1  UNL1        0.0229
     15 C          63.9640   81.4934   13.1175 C.3     1  UNL1        0.0190
     16 C          62.7645   82.1528   13.7311 C.3     1  UNL1        0.0710
     17 N          61.9936   81.4521   14.8104 N.3     1  UNL1       -0.3208
     18 C          62.3359   83.5127   13.2654 C.3     1  UNL1        0.1089
     19 H          62.4215   80.5459   15.0003 H       1  UNL1        0.1189
     20 H          61.0296   81.3159   14.5060 H       1  UNL1        0.1189
     21 C          60.6530   85.3578    7.1212 C.3     1  UNL1        0.2525
     22 O          59.8596   85.9733    8.2354 O.3     1  UNL1       -0.4699
     23 C          64.1289   86.6664   13.5780 C.3     1  UNL1        0.1391
     24 C          63.5966   86.6939   14.9801 C.ar    1  UNL1        0.0102
     25 C          62.9702   85.4646   15.5688 C.ar    1  UNL1       -0.0017
     26 C          62.4379   85.4920   16.9709 C.ar    1  UNL1       -0.0002
     27 C          62.5319   86.7489   17.7843 C.ar    1  UNL1        0.0007
     28 C          63.1583   87.9781   17.1957 C.ar    1  UNL1        0.0100
     29 C          63.6906   87.9506   15.7936 C.ar    1  UNL1        0.0663
     30 C          64.3170   89.1799   15.2049 C.1     1  UNL1        0.1002
     31 N          64.9434   90.4092   14.6162 N.1     1  UNL1       -0.1908
@<TRIPOS>BOND
     1    21    22    1
     2    22     1    1
     3     1     2   ar
     4     2     3   ar
     5     3     4   ar
     6     4     5   ar
     7     5     6   ar
     8     6     7    2
     9     6     8   ar
    10     8    23    1
    11    23    24    1
    12    24    25   ar
    13    25    26   ar
    14    26    27   ar
    15    27    28   ar
    16    28    29   ar
    17    29    30    1
    18    30    31    3
    19     8     9   ar
    20     9    12    1
    21    12    13    1
    22    13    14    1
    23    14    15    1
    24    15    16    1
    25    16    17    1
    26    16    18    1
    27     9    10   ar
    28    10    11   ar
    29    11     1   ar
    30    11     5   ar
    31    29    24   ar
    32    18    12    1
    33    17    19    1
    34    17    20    1
@<TRIPOS>MOLECULE
*****
 31 34 0 0 0
SMALL
GASTEIGER

@<TRIPOS>ATOM
      1 C          60.7181   87.6356    9.1481 C.ar    1  UNL1        0.1564
      2 C          60.4421   89.0604    8.7694 C.ar    1  UNL1        0.0385
      3 C          61.0437   90.1787    9.5679 C.ar    1  UNL1        0.0034
      4 C          61.9214   89.8721   10.7449 C.ar    1  UNL1        0.0065
      5 C          62.1975   88.4472   11.1236 C.ar    1  UNL1        0.0769
      6 C          63.0752   88.1406   12.3008 C.ar    1  UNL1        0.2646
      7 O          63.6769   89.2589   13.0992 O.2     1  UNL1       -0.2668
      8 N          63.3513   86.7157   12.6795 N.ar    1  UNL1       -0.2644
      9 C          62.7496   85.5974   11.8811 C.ar    1  UNL1        0.2037
     10 N          61.8719   85.9040   10.7040 N.ar    1  UNL1       -0.2117
     11 C          61.5958   87.3290   10.3252 C.ar    1  UNL1        0.1225
     12 N          63.0257   84.1725   12.2598 N.pl3   1  UNL1       -0.2781
     13 C          64.2666   83.4914   11.7634 C.3     1  UNL1        0.0937
     14 C          64.5427   82.0666   12.1421 C.3     1  UNL1        0.0229
     15 C          63.5779   81.3227   13.0172 C.3     1  UNL1        0.0190
     16 C          62.3370   82.0037   13.5136 C.3     1  UNL1        0.0710
     17 N          61.3722   81.2598   14.3887 N.3     1  UNL1       -0.3208
     18 C          62.0609   83.4286   13.1349 C.3     1  UNL1        0.1089
     19 H          61.7151   80.3117   14.5435 H       1  UNL1        0.1189
     20 H          60.4602   81.2214   13.9335 H       1  UNL1        0.1189
     21 C          58.8735   86.7549    7.5445 C.3     1  UNL1        0.2525
     22 O          60.1165   86.5173    8.3497 O.3     1  UNL1       -0.4699
     23 C          64.2290   86.4090   13.8566 C.3     1  UNL1        0.1391
     24 C          63.7871   86.7853   15.2398 C.ar    1  UNL1        0.0102
     25 C          63.5220   88.2225   15.5775 C.ar    1  UNL1       -0.0017
     26 C          63.0801   88.5988   16.9607 C.ar    1  UNL1       -0.0002
     27 C          62.9034   87.5377   18.0062 C.ar    1  UNL1        0.0007
     28 C          63.1685   86.1005   17.6685 C.ar    1  UNL1        0.0100
     29 C          63.6104   85.7243   16.2853 C.ar    1  UNL1        0.0663
     30 C          63.8755   84.2871   15.9476 C.1     1  UNL1        0.1002
     31 N          64.1407   82.8498   15.6098 N.1     1  UNL1       -0.1908
@<TRIPOS>BOND
     1    21    22    1
     2    22     1    1
     3     1     2   ar
     4     2     3   ar
     5     3     4   ar
     6     4     5   ar
     7     5     6   ar
     8     6     7    2
     9     6     8   ar
    10     8    23    1
    11    23    24    1
    12    24    25   ar
    13    25    26   ar
    14    26    27   ar
    15    27    28   ar
    16    28    29   ar
    17    29    30    1
    18    30    31    3
    19     8     9   ar
    20     9    12    1
    21    12    13    1
    22    13    14    1
    23    14    15    1
    24    15    16    1
    25    16    17    1
    26    16    18    1
    27     9    10   ar
    28    10    11   ar
    29    11     1   ar
    30    11     5   ar
    31    29    24   ar
    32    18    12    1
    33    17    19    1
    34    17    20    1
@<TRIPOS>MOLECULE
*****
 31 34 0 0 0
SMALL
GASTEIGER

@<TRIPOS>ATOM
      1 C          63.5663   84.2728   12.9263 C.ar    1  UNL1        0.1564
      2 C          64.4900   83.5163   13.8343 C.ar    1  UNL1        0.0385
      3 C          65.3095   84.2521   14.8526 C.ar    1  UNL1        0.0034
      4 C          65.2053   85.7444   14.9630 C.ar    1  UNL1        0.0065
      5 C          64.2816   86.5009   14.0550 C.ar    1  UNL1        0.0769
      6 C          64.1774   87.9932   14.1653 C.ar    1  UNL1        0.2646
      7 O          64.9969   88.7290   15.1837 O.2     1  UNL1       -0.2668
      8 N          63.2537   88.7497   13.2573 N.ar    1  UNL1       -0.2644
      9 C          62.4342   88.0139   12.2390 C.ar    1  UNL1        0.2037
     10 N          62.5384   86.5217   12.1286 N.ar    1  UNL1       -0.2117
     11 C          63.4621   85.7651   13.0366 C.ar    1  UNL1        0.1225
     12 N          61.5105   88.7705   11.3309 N.pl3   1  UNL1       -0.2781
     13 C          61.5686   88.5492    9.8485 C.3     1  UNL1        0.0937
     14 C          60.6450   89.3057    8.9405 C.3     1  UNL1        0.0229
     15 C          59.6632   90.2835    9.5149 C.3     1  UNL1        0.0190
     16 C          59.6051   90.5048   10.9973 C.3     1  UNL1        0.0710
     17 N          58.6233   91.4827   11.5718 N.3     1  UNL1       -0.3208
     18 C          60.5288   89.7483   11.9054 C.3     1  UNL1        0.1089
     19 H          58.0804   91.9024   10.8171 H       1  UNL1        0.1189
     20 H          59.1262   92.2130   12.0758 H       1  UNL1        0.1189
     21 C          62.7958   82.0391   11.8460 C.3     1  UNL1        0.2525
     22 O          62.7468   83.5370   11.9079 O.3     1  UNL1       -0.4699
     23 C          63.1495   90.2421   13.3677 C.3     1  UNL1        0.1391
     24 C          63.9785   91.1196   12.4773 C.ar    1  UNL1        0.0102
     25 C          63.7353   91.1295   10.9972 C.ar    1  UNL1       -0.0017
     26 C          64.5643   92.0071   10.1068 C.ar    1  UNL1       -0.0002
     27 C          65.6364   92.8747   10.6967 C.ar    1  UNL1        0.0007
     28 C          65.8795   92.8648   12.1768 C.ar    1  UNL1        0.0100
     29 C          65.0505   91.9873   13.0671 C.ar    1  UNL1        0.0663
     30 C          65.2936   91.9773   14.5472 C.1     1  UNL1        0.1002
     31 N          65.5366   91.9674   16.0274 N.1     1  UNL1       -0.1908
@<TRIPOS>BOND
     1    21    22    1
     2    22     1    1
     3     1     2   ar
     4     2     3   ar
     5     3     4   ar
     6     4     5   ar
     7     5     6   ar
     8     6     7    2
     9     6     8   ar
    10     8    23    1
    11    23    24    1
    12    24    25   ar
    13    25    26   ar
    14    26    27   ar
    15    27    28   ar
    16    28    29   ar
    17    29    30    1
    18    30    31    3
    19     8     9   ar
    20     9    12    1
    21    12    13    1
    22    13    14    1
    23    14    15    1
    24    15    16    1
    25    16    17    1
    26    16    18    1
    27     9    10   ar
    28    10    11   ar
    29    11     1   ar
    30    11     5   ar
    31    29    24   ar
    32    18    12    1
    33    17    19    1
    34    17    20    1
@<TRIPOS>MOLECULE
*****
 31 34 0 0 0
SMALL
GASTEIGER

@<TRIPOS>ATOM
      1 C          63.4026   84.7821   15.5494 C.ar    1  UNL1        0.1564
      2 C          63.1183   83.3171   15.7005 C.ar    1  UNL1        0.0385
      3 C          62.6473   82.5190   14.5210 C.ar    1  UNL1        0.0034
      4 C          62.4606   83.1858   13.1905 C.ar    1  UNL1        0.0065
      5 C          62.7449   84.6509   13.0394 C.ar    1  UNL1        0.0769
      6 C          62.5582   85.3178   11.7088 C.ar    1  UNL1        0.2646
      7 O          62.0872   84.5197   10.5294 O.2     1  UNL1       -0.2668
      8 N          62.8424   86.7828   11.5578 N.ar    1  UNL1       -0.2644
      9 C          63.3134   87.5810   12.7372 C.ar    1  UNL1        0.2037
     10 N          63.5001   86.9141   14.0678 N.ar    1  UNL1       -0.2117
     11 C          63.2159   85.4490   14.2189 C.ar    1  UNL1        0.1225
     12 N          63.5977   89.0461   12.5861 N.pl3   1  UNL1       -0.2781
     13 C          63.1950   89.7627   11.3314 C.3     1  UNL1        0.0937
     14 C          63.4792   91.2277   11.1803 C.3     1  UNL1        0.0229
     15 C          64.1662   91.9761   12.2838 C.3     1  UNL1        0.0190
     16 C          64.5689   91.2595   13.5386 C.3     1  UNL1        0.0710
     17 N          65.2558   92.0080   14.6422 N.3     1  UNL1       -0.3208
     18 C          64.2846   89.7945   13.6897 C.3     1  UNL1        0.1089
     19 H          65.3677   92.9852   14.3719 H       1  UNL1        0.1189
     20 H          66.1728   91.5955   14.8133 H       1  UNL1        0.1189
     21 C          62.8840   86.3307   17.5700 C.3     1  UNL1        0.2525
     22 O          63.8736   85.5802   16.7289 O.3     1  UNL1       -0.4699
     23 C          62.6557   87.4498   10.2272 C.3     1  UNL1        0.1391
     24 C          61.4576   87.1230    9.3860 C.ar    1  UNL1        0.0102
     25 C          61.6119   86.2750    8.1583 C.ar    1  UNL1       -0.0017
     26 C          60.4137   85.9482    7.3171 C.ar    1  UNL1       -0.0002
     27 C          59.0612   86.4693    7.7036 C.ar    1  UNL1        0.0007
     28 C          58.9070   87.3172    8.9313 C.ar    1  UNL1        0.0100
     29 C          60.1051   87.6440    9.7725 C.ar    1  UNL1        0.0663
     30 C          59.9509   88.4919   11.0002 C.1     1  UNL1        0.1002
     31 N          59.7967   89.3398   12.2279 N.1     1  UNL1       -0.1908
@<TRIPOS>BOND
     1    21    22    1
     2    22     1    1
     3     1     2   ar
     4     2     3   ar
     5     3     4   ar
     6     4     5   ar
     7     5     6   ar
     8     6     7    2
     9     6     8   ar
    10     8    23    1
    11    23    24    1
    12    24    25   ar
    13    25    26   ar
    14    26    27   ar
    15    27    28   ar
    16    28    29   ar
    17    29    30    1
    18    30    31    3
    19     8     9   ar
    20     9    12    1
    21    12    13    1
    22    13    14    1
    23    14    15    1
    24    15    16    1
    25    16    17    1
    26    16    18    1
    27     9    10   ar
    28    10    11   ar
    29    11     1   ar
    30    11     5   ar
    31    29    24   ar
    32    18    12    1
    33    17    19    1
    34    17    20    1
@<TRIPOS>MOLECULE
*****
 31 34 0 0 0
SMALL
GASTEIGER

@<TRIPOS>ATOM
      1 C          60.0900   86.5794    7.6041 C.ar    1  UNL1        0.1564
      2 C          59.3122   87.5459    6.7609 C.ar    1  UNL1        0.0385
      3 C          59.1803   88.9774    7.1892 C.ar    1  UNL1        0.0034
      4 C          59.8261   89.4424    8.4606 C.ar    1  UNL1        0.0065
      5 C          60.6038   88.4759    9.3038 C.ar    1  UNL1        0.0769
      6 C          61.2496   88.9410   10.5754 C.ar    1  UNL1        0.2646
      7 O          61.1177   90.3725   11.0036 O.2     1  UNL1       -0.2668
      8 N          62.0274   87.9745   11.4186 N.ar    1  UNL1       -0.2644
      9 C          62.1593   86.5430   10.9903 C.ar    1  UNL1        0.2037
     10 N          61.5135   86.0780    9.7189 N.ar    1  UNL1       -0.2117
     11 C          60.7357   87.0444    8.8756 C.ar    1  UNL1        0.1225
     12 N          62.9371   85.5765   11.8336 N.pl3   1  UNL1       -0.2781
     13 C          63.2804   84.2191   11.2954 C.3     1  UNL1        0.0937
     14 C          64.0581   83.2527   12.1386 C.3     1  UNL1        0.0229
     15 C          64.4926   83.6436   13.5200 C.3     1  UNL1        0.0190
     16 C          64.1493   85.0010   14.0582 C.3     1  UNL1        0.0710
     17 N          64.5838   85.3918   15.4397 N.3     1  UNL1       -0.3208
     18 C          63.3715   85.9674   13.2150 C.3     1  UNL1        0.1089
     19 H          65.0972   84.6203   15.8657 H       1  UNL1        0.1189
     20 H          63.7633   85.6079   16.0058 H       1  UNL1        0.1189
     21 C          61.4600   84.6890    6.4642 C.3     1  UNL1        0.2525
     22 O          60.2219   85.1479    7.1759 O.3     1  UNL1       -0.4699
     23 C          62.6732   88.4395   12.6901 C.3     1  UNL1        0.1391
     24 C          63.4824   89.7024   12.7020 C.ar    1  UNL1        0.0102
     25 C          63.8120   90.3942   11.4124 C.ar    1  UNL1       -0.0017
     26 C          64.6212   91.6571   11.4243 C.ar    1  UNL1       -0.0002
     27 C          65.1009   92.2283   12.7257 C.ar    1  UNL1        0.0007
     28 C          64.7714   91.5365   14.0152 C.ar    1  UNL1        0.0100
     29 C          63.9622   90.2736   14.0033 C.ar    1  UNL1        0.0663
     30 C          63.6326   89.5818   15.2928 C.1     1  UNL1        0.1002
     31 N          63.3030   88.8900   16.5824 N.1     1  UNL1       -0.1908
@<TRIPOS>BOND
     1    21    22    1
     2    22     1    1
     3     1     2   ar
     4     2     3   ar
     5     3     4   ar
     6     4     5   ar
     7     5     6   ar
     8     6     7    2
     9     6     8   ar
    10     8    23    1
    11    23    24    1
    12    24    25   ar
    13    25    26   ar
    14    26    27   ar
    15    27    28   ar
    16    28    29   ar
    17    29    30    1
    18    30    31    3
    19     8     9   ar
    20     9    12    1
    21    12    13    1
    22    13    14    1
    23    14    15    1
    24    15    16    1
    25    16    17    1
    26    16    18    1
    27     9    10   ar
    28    10    11   ar
    29    11     1   ar
    30    11     5   ar
    31    29    24   ar
    32    18    12    1
    33    17    19    1
    34    17    20    1
