@<TRIPOS>MOLECULE
*****
 48 51 0 0 0
SMALL
GASTEIGER

@<TRIPOS>ATOM
      1 C          65.7432   91.3260   14.6926 C.3     1  UNL1        0.0503
      2 C          64.8816   91.1124   13.4834 C.ar    1  UNL1        0.0465
      3 C          63.8524   90.0211   13.4792 C.ar    1  UNL1        0.0703
      4 C          62.9908   89.8074   12.2701 C.ar    1  UNL1        0.2654
      5 O          61.9617   88.7161   12.2659 O.2     1  UNL1       -0.2668
      6 N          63.1583   90.6850   11.0652 N.ar    1  UNL1       -0.2470
      7 C          64.1874   91.7763   11.0695 C.ar    1  UNL1        0.3338
      8 O          64.2092   92.2875   10.2288 O.2     1  UNL1       -0.2462
      9 N          65.0490   91.9899   12.2786 N.ar    1  UNL1       -0.2806
     10 C          63.6849   89.1435   14.6841 C.ar    1  UNL1        0.0362
     11 C          63.1600   89.7206   15.9652 C.ar    1  UNL1        0.0026
     12 C          62.9925   88.8430   17.1702 C.ar    1  UNL1        0.0033
     13 C          63.3499   87.3882   17.0939 C.ar    1  UNL1        0.0392
     14 C          63.8749   86.8110   15.8127 C.ar    1  UNL1        0.1658
     15 C          64.0424   87.6887   14.6078 C.ar    1  UNL1        0.1739
     16 F          64.5673   87.1115   13.3266 F       1  UNL1       -0.2010
     17 O          64.2323   85.3562   15.7364 O.3     1  UNL1       -0.4732
     18 C          63.6910   84.5083   14.6236 C.3     1  UNL1        0.2055
     19 C          62.3386   83.8730   14.7546 C.3     1  UNL1        0.0473
     20 C          62.1573   82.4205   14.4268 C.3     1  UNL1        0.0042
     21 C          63.1399   81.7254   13.5317 C.3     1  UNL1        0.0060
     22 C          62.9256   81.7155   12.0471 C.3     1  UNL1        0.0417
     23 C          63.4789   82.8244   11.2021 C.2     1  UNL1        0.0503
     24 O          64.6792   82.5802   10.3363 O.co2   1  UNL1       -0.5492
     25 O          62.8319   84.1776   11.2229 O.co2   1  UNL1       -0.5492
     26 C          62.2967   90.4713    9.8561 C.3     1  UNL1        0.1334
     27 C          60.9824   89.7606    9.9879 C.3     1  UNL1        0.0968
     28 N          59.9109   90.3234   10.8741 N.3     1  UNL1       -0.3172
     29 H          59.0916   89.7164   10.8445 H       1  UNL1        0.1192
     30 H          59.6553   91.2556   10.5486 H       1  UNL1        0.1192
     31 C          60.7395   88.4871    9.2335 C.ar    1  UNL1       -0.0063
     32 C          59.5021   88.3337    8.3995 C.ar    1  UNL1       -0.0029
     33 C          59.2592   87.0602    7.6451 C.ar    1  UNL1       -0.0003
     34 C          60.2537   85.9400    7.7247 C.ar    1  UNL1       -0.0000
     35 C          61.4910   86.0934    8.5586 C.ar    1  UNL1       -0.0003
     36 C          61.7339   87.3669    9.3130 C.ar    1  UNL1       -0.0029
     37 C          66.0782   93.0813   12.2828 C.3     1  UNL1        0.1391
     38 C          66.8634   93.3764   11.0393 C.ar    1  UNL1        0.0319
     39 C          67.7750   92.3340   10.4628 C.ar    1  UNL1        0.1379
     40 F          67.9356   91.4284   10.8131 F       1  UNL1       -0.2044
     41 C          68.5603   92.6292    9.2193 C.ar    1  UNL1        0.0294
     42 C          68.4340   93.9668    8.5523 C.ar    1  UNL1        0.0022
     43 C          67.5224   95.0092    9.1288 C.ar    1  UNL1        0.0037
     44 C          66.7371   94.7141   10.3723 C.ar    1  UNL1        0.0714
     45 C          65.8256   95.7565   10.9488 C.3     1  UNL1        0.4184
     46 F          64.9140   96.7990   11.5253 F       1  UNL1       -0.1659
     47 F          66.8819   96.1282   11.9469 F       1  UNL1       -0.1659
     48 F          64.7693   95.3848    9.9508 F       1  UNL1       -0.1659
@<TRIPOS>UNITY_ATOM_ATTR
24 1
charge -1
@<TRIPOS>BOND
     1     1     2    1
     2     2     3   ar
     3     3    10    1
     4    10    11   ar
     5    11    12   ar
     6    12    13   ar
     7    13    14   ar
     8    14    17    1
     9    17    18    1
    10    18    19    1
    11    19    20    1
    12    20    21    1
    13    21    22    1
    14    22    23    1
    15    23    24   ar
    16    23    25   ar
    17    14    15   ar
    18    15    16    1
    19     3     4   ar
    20     4     5    2
    21     4     6   ar
    22     6    26    1
    23    26    27    1
    24    27    28    1
    25    27    31    1
    26    31    32   ar
    27    32    33   ar
    28    33    34   ar
    29    34    35   ar
    30    35    36   ar
    31     6     7   ar
    32     7     8    2
    33     7     9   ar
    34     9    37    1
    35    37    38    1
    36    38    39   ar
    37    39    40    1
    38    39    41   ar
    39    41    42   ar
    40    42    43   ar
    41    43    44   ar
    42    44    45    1
    43    45    46    1
    44    45    47    1
    45    45    48    1
    46     9     2   ar
    47    44    38   ar
    48    15    10   ar
    49    36    31   ar
    50    28    29    1
    51    28    30    1
@<TRIPOS>MOLECULE
*****
 48 51 0 0 0
SMALL
GASTEIGER

@<TRIPOS>ATOM
      1 C          65.5410   91.5937   14.8027 C.3     1  UNL1        0.0503
      2 C          64.8011   91.2760   13.5371 C.ar    1  UNL1        0.0465
      3 C          63.8674   90.1031   13.4885 C.ar    1  UNL1        0.0703
      4 C          63.1275   89.7854   12.2229 C.ar    1  UNL1        0.2654
      5 O          62.1937   88.6125   12.1744 O.2     1  UNL1       -0.2668
      6 N          63.3213   90.6407   11.0060 N.ar    1  UNL1       -0.2470
      7 C          64.2550   91.8136   11.0546 C.ar    1  UNL1        0.3338
      8 O          64.3040   92.3017   10.2014 O.2     1  UNL1       -0.2462
      9 N          64.9949   92.1312   12.3202 N.ar    1  UNL1       -0.2806
     10 C          63.6735   89.2478   14.7055 C.ar    1  UNL1        0.0362
     11 C          63.1971   89.8643   15.9873 C.ar    1  UNL1        0.0026
     12 C          63.0033   89.0090   17.2042 C.ar    1  UNL1        0.0033
     13 C          63.2858   87.5373   17.1393 C.ar    1  UNL1        0.0392
     14 C          63.7622   86.9208   15.8575 C.ar    1  UNL1        0.1658
     15 C          63.9560   87.7761   14.6406 C.ar    1  UNL1        0.1739
     16 F          64.4324   87.1597   13.3587 F       1  UNL1       -0.2010
     17 O          64.0447   85.4491   15.7926 O.3     1  UNL1       -0.4732
     18 C          62.9833   84.5019   15.3168 C.3     1  UNL1        0.2055
     19 C          63.3201   83.0614   15.0686 C.3     1  UNL1        0.0473
     20 C          62.3518   82.1802   14.3366 C.3     1  UNL1        0.0042
     21 C          62.7919   81.4403   13.1082 C.3     1  UNL1        0.0060
     22 C          62.5834   82.0470   11.7524 C.3     1  UNL1        0.0417
     23 C          63.5053   83.1242   11.2629 C.2     1  UNL1        0.0503
     24 O          64.8851   82.7732   10.7908 O.co2   1  UNL1       -0.5492
     25 O          63.0473   84.5526   11.2454 O.co2   1  UNL1       -0.5492
     26 C          62.5814   90.3230    9.7404 C.3     1  UNL1        0.1334
     27 C          61.1633   89.8382    9.8023 C.3     1  UNL1        0.0968
     28 N          60.1331   90.6272   10.5549 N.3     1  UNL1       -0.3172
     29 H          59.2310   90.1552   10.4927 H       1  UNL1        0.1192
     30 H          60.0571   91.5604   10.1502 H       1  UNL1        0.1192
     31 C          60.7752   88.5645    9.1116 C.ar    1  UNL1       -0.0063
     32 C          59.5387   88.5178    8.2636 C.ar    1  UNL1       -0.0029
     33 C          59.1507   87.2441    7.5729 C.ar    1  UNL1       -0.0003
     34 C          59.9992   86.0171    7.7302 C.ar    1  UNL1       -0.0000
     35 C          61.2356   86.0639    8.5781 C.ar    1  UNL1       -0.0003
     36 C          61.6236   87.3376    9.2688 C.ar    1  UNL1       -0.0029
     37 C          65.9287   93.3042   12.3688 C.3     1  UNL1        0.1391
     38 C          66.4296   93.9174   11.0948 C.ar    1  UNL1        0.0319
     39 C          65.8481   95.2107   10.6056 C.ar    1  UNL1        0.1379
     40 F          65.1396   95.7416   11.0352 F       1  UNL1       -0.2044
     41 C          66.3490   95.8238    9.3315 C.ar    1  UNL1        0.0294
     42 C          67.4314   95.1437    8.5467 C.ar    1  UNL1        0.0022
     43 C          68.0128   93.8504    9.0359 C.ar    1  UNL1        0.0037
     44 C          67.5120   93.2372   10.3099 C.ar    1  UNL1        0.0714
     45 C          68.0934   91.9440   10.7991 C.3     1  UNL1        0.4184
     46 F          68.6749   90.6507   11.2883 F       1  UNL1       -0.1659
     47 F          67.9986   91.3772    9.4135 F       1  UNL1       -0.1659
     48 F          68.1882   92.5107   12.1847 F       1  UNL1       -0.1659
@<TRIPOS>UNITY_ATOM_ATTR
24 1
charge -1
@<TRIPOS>BOND
     1     1     2    1
     2     2     3   ar
     3     3    10    1
     4    10    11   ar
     5    11    12   ar
     6    12    13   ar
     7    13    14   ar
     8    14    17    1
     9    17    18    1
    10    18    19    1
    11    19    20    1
    12    20    21    1
    13    21    22    1
    14    22    23    1
    15    23    24   ar
    16    23    25   ar
    17    14    15   ar
    18    15    16    1
    19     3     4   ar
    20     4     5    2
    21     4     6   ar
    22     6    26    1
    23    26    27    1
    24    27    28    1
    25    27    31    1
    26    31    32   ar
    27    32    33   ar
    28    33    34   ar
    29    34    35   ar
    30    35    36   ar
    31     6     7   ar
    32     7     8    2
    33     7     9   ar
    34     9    37    1
    35    37    38    1
    36    38    39   ar
    37    39    40    1
    38    39    41   ar
    39    41    42   ar
    40    42    43   ar
    41    43    44   ar
    42    44    45    1
    43    45    46    1
    44    45    47    1
    45    45    48    1
    46     9     2   ar
    47    44    38   ar
    48    15    10   ar
    49    36    31   ar
    50    28    29    1
    51    28    30    1
@<TRIPOS>MOLECULE
*****
 48 51 0 0 0
SMALL
GASTEIGER

@<TRIPOS>ATOM
      1 C          63.5146   90.8570   12.0135 C.3     1  UNL1        0.0503
      2 C          63.4592   89.4459   12.5190 C.ar    1  UNL1        0.0465
      3 C          63.8221   89.1445   13.9429 C.ar    1  UNL1        0.0703
      4 C          63.7666   87.7333   14.4484 C.ar    1  UNL1        0.2654
      5 O          64.1295   87.4320   15.8723 O.2     1  UNL1       -0.2668
      6 N          63.3484   86.6236   13.5301 N.ar    1  UNL1       -0.2470
      7 C          62.9855   86.9249   12.1062 C.ar    1  UNL1        0.3338
      8 O          62.7273   86.1232   11.5972 O.2     1  UNL1       -0.2462
      9 N          63.0409   88.3361   11.6007 N.ar    1  UNL1       -0.2806
     10 C          64.2404   90.2543   14.8613 C.ar    1  UNL1        0.0362
     11 C          63.4637   90.5222   16.1162 C.ar    1  UNL1        0.0026
     12 C          63.8820   91.6321   17.0346 C.ar    1  UNL1        0.0033
     13 C          65.0770   92.4739   16.6981 C.ar    1  UNL1        0.0392
     14 C          65.8537   92.2059   15.4430 C.ar    1  UNL1        0.1658
     15 C          65.4354   91.0961   14.5247 C.ar    1  UNL1        0.1739
     16 F          66.2121   90.8281   13.2697 F       1  UNL1       -0.2010
     17 O          67.0487   93.0477   15.1064 O.3     1  UNL1       -0.4732
     18 C          66.9370   94.1296   14.0734 C.3     1  UNL1        0.2055
     19 C          66.1644   93.8845   12.8113 C.3     1  UNL1        0.0473
     20 C          66.3408   94.7979   11.6346 C.3     1  UNL1        0.0042
     21 C          66.2867   94.2450   10.2413 C.3     1  UNL1        0.0060
     22 C          67.5509   94.0757    9.4519 C.3     1  UNL1        0.0417
     23 C          68.2720   92.7604    9.4638 C.2     1  UNL1        0.0503
     24 O          68.7212   92.1398    8.1742 O.co2   1  UNL1       -0.5492
     25 O          68.5438   92.0658   10.7652 O.co2   1  UNL1       -0.5492
     26 C          63.2930   85.2124   14.0356 C.3     1  UNL1        0.1334
     27 C          64.3345   84.2212   13.6083 C.3     1  UNL1        0.0968
     28 N          65.7250   84.3076   14.1645 N.3     1  UNL1       -0.3172
     29 H          66.2966   83.5614   13.7683 H       1  UNL1        0.1192
     30 H          65.6921   84.2086   15.1791 H       1  UNL1        0.1192
     31 C          63.9857   83.1436   12.6249 C.ar    1  UNL1       -0.0063
     32 C          63.1979   81.9476   13.0710 C.ar    1  UNL1       -0.0029
     33 C          62.8491   80.8700   12.0876 C.ar    1  UNL1       -0.0003
     34 C          63.2882   80.9884   10.6581 C.ar    1  UNL1       -0.0000
     35 C          64.0760   82.1844   10.2121 C.ar    1  UNL1       -0.0003
     36 C          64.4248   83.2620   11.1955 C.ar    1  UNL1       -0.0029
     37 C          62.6780   88.6375   10.1767 C.3     1  UNL1        0.1391
     38 C          61.6000   87.8486    9.4944 C.ar    1  UNL1        0.0319
     39 C          61.9614   86.6827    8.6226 C.ar    1  UNL1        0.1379
     40 F          62.8656   86.3469    8.4274 F       1  UNL1       -0.2044
     41 C          60.8833   85.8938    7.9403 C.ar    1  UNL1        0.0294
     42 C          59.4439   86.2709    8.1298 C.ar    1  UNL1        0.0022
     43 C          59.0825   87.4368    9.0016 C.ar    1  UNL1        0.0037
     44 C          60.1605   88.2257    9.6839 C.ar    1  UNL1        0.0714
     45 C          59.7992   89.3916   10.5557 C.3     1  UNL1        0.4184
     46 F          59.4378   90.5575   11.4275 F       1  UNL1       -0.1659
     47 F          59.6323   88.4661   11.7243 F       1  UNL1       -0.1659
     48 F          59.9661   90.3171    9.3871 F       1  UNL1       -0.1659
@<TRIPOS>UNITY_ATOM_ATTR
24 1
charge -1
@<TRIPOS>BOND
     1     1     2    1
     2     2     3   ar
     3     3    10    1
     4    10    11   ar
     5    11    12   ar
     6    12    13   ar
     7    13    14   ar
     8    14    17    1
     9    17    18    1
    10    18    19    1
    11    19    20    1
    12    20    21    1
    13    21    22    1
    14    22    23    1
    15    23    24   ar
    16    23    25   ar
    17    14    15   ar
    18    15    16    1
    19     3     4   ar
    20     4     5    2
    21     4     6   ar
    22     6    26    1
    23    26    27    1
    24    27    28    1
    25    27    31    1
    26    31    32   ar
    27    32    33   ar
    28    33    34   ar
    29    34    35   ar
    30    35    36   ar
    31     6     7   ar
    32     7     8    2
    33     7     9   ar
    34     9    37    1
    35    37    38    1
    36    38    39   ar
    37    39    40    1
    38    39    41   ar
    39    41    42   ar
    40    42    43   ar
    41    43    44   ar
    42    44    45    1
    43    45    46    1
    44    45    47    1
    45    45    48    1
    46     9     2   ar
    47    44    38   ar
    48    15    10   ar
    49    36    31   ar
    50    28    29    1
    51    28    30    1
@<TRIPOS>MOLECULE
*****
 48 51 0 0 0
SMALL
GASTEIGER

@<TRIPOS>ATOM
      1 C          65.0416   86.6749   14.8027 C.3     1  UNL1        0.0503
      2 C          63.9330   86.8256   13.8036 C.ar    1  UNL1        0.0465
      3 C          63.2041   88.1311   13.6833 C.ar    1  UNL1        0.0703
      4 C          62.0955   88.2818   12.6842 C.ar    1  UNL1        0.2654
      5 O          61.3666   89.5873   12.5640 O.2     1  UNL1       -0.2668
      6 N          61.7158   87.1272   11.8053 N.ar    1  UNL1       -0.2470
      7 C          62.4447   85.8217   11.9255 C.ar    1  UNL1        0.3338
      8 O          62.1126   85.1370   11.3015 O.2     1  UNL1       -0.2462
      9 N          63.5533   85.6710   12.9247 N.ar    1  UNL1       -0.2806
     10 C          63.5838   89.2858   14.5623 C.ar    1  UNL1        0.0362
     11 C          63.1741   89.2965   16.0052 C.ar    1  UNL1        0.0026
     12 C          63.5538   90.4513   16.8841 C.ar    1  UNL1        0.0033
     13 C          64.3431   91.5953   16.3201 C.ar    1  UNL1        0.0392
     14 C          64.7529   91.5845   14.8771 C.ar    1  UNL1        0.1658
     15 C          64.3732   90.4298   13.9983 C.ar    1  UNL1        0.1739
     16 F          64.7829   90.4191   12.5553 F       1  UNL1       -0.2010
     17 O          65.5422   92.7285   14.3131 O.3     1  UNL1       -0.4732
     18 C          67.0047   92.8550   14.6218 C.3     1  UNL1        0.2055
     19 C          67.9851   91.8960   14.0144 C.3     1  UNL1        0.0473
     20 C          68.1158   91.8010   12.5232 C.3     1  UNL1        0.0042
     21 C          67.2156   92.6114   11.6383 C.3     1  UNL1        0.0060
     22 C          67.1731   92.3419   10.1634 C.3     1  UNL1        0.0417
     23 C          68.1890   92.9707    9.2564 C.2     1  UNL1        0.0503
     24 O          68.4998   94.4330    9.3780 O.co2   1  UNL1       -0.5492
     25 O          68.8942   92.1370    8.2279 O.co2   1  UNL1       -0.5492
     26 C          60.6073   87.2779   10.8061 C.3     1  UNL1        0.1334
     27 C          60.9241   87.6170    9.3798 C.3     1  UNL1        0.0968
     28 N          60.8775   89.0441    8.9199 N.3     1  UNL1       -0.3172
     29 H          61.1188   89.0904    7.9300 H       1  UNL1        0.1192
     30 H          61.5444   89.5968    9.4586 H       1  UNL1        0.1192
     31 C          61.2876   86.5291    8.4132 C.ar    1  UNL1       -0.0063
     32 C          60.2494   85.9741    7.4835 C.ar    1  UNL1       -0.0029
     33 C          60.6129   84.8862    6.5169 C.ar    1  UNL1       -0.0003
     34 C          62.0146   84.3533    6.4800 C.ar    1  UNL1       -0.0000
     35 C          63.0527   84.9082    7.4096 C.ar    1  UNL1       -0.0003
     36 C          62.6892   85.9962    8.3762 C.ar    1  UNL1       -0.0029
     37 C          64.2822   84.3654   13.0449 C.3     1  UNL1        0.1391
     38 C          63.5114   83.0828   13.1484 C.ar    1  UNL1        0.0319
     39 C          63.5934   82.0676   12.0472 C.ar    1  UNL1        0.1379
     40 F          64.1169   82.1356   11.2167 F       1  UNL1       -0.2044
     41 C          62.8225   80.7850   12.1508 C.ar    1  UNL1        0.0294
     42 C          61.9697   80.5176   13.3554 C.ar    1  UNL1        0.0022
     43 C          61.8878   81.5329   14.4566 C.ar    1  UNL1        0.0037
     44 C          62.6586   82.8154   14.3531 C.ar    1  UNL1        0.0714
     45 C          62.5766   83.8307   15.4543 C.3     1  UNL1        0.4184
     46 F          62.4947   84.8459   16.5554 F       1  UNL1       -0.1659
     47 F          61.2806   84.3354   14.8925 F       1  UNL1       -0.1659
     48 F          63.8727   83.3260   16.0161 F       1  UNL1       -0.1659
@<TRIPOS>UNITY_ATOM_ATTR
24 1
charge -1
@<TRIPOS>BOND
     1     1     2    1
     2     2     3   ar
     3     3    10    1
     4    10    11   ar
     5    11    12   ar
     6    12    13   ar
     7    13    14   ar
     8    14    17    1
     9    17    18    1
    10    18    19    1
    11    19    20    1
    12    20    21    1
    13    21    22    1
    14    22    23    1
    15    23    24   ar
    16    23    25   ar
    17    14    15   ar
    18    15    16    1
    19     3     4   ar
    20     4     5    2
    21     4     6   ar
    22     6    26    1
    23    26    27    1
    24    27    28    1
    25    27    31    1
    26    31    32   ar
    27    32    33   ar
    28    33    34   ar
    29    34    35   ar
    30    35    36   ar
    31     6     7   ar
    32     7     8    2
    33     7     9   ar
    34     9    37    1
    35    37    38    1
    36    38    39   ar
    37    39    40    1
    38    39    41   ar
    39    41    42   ar
    40    42    43   ar
    41    43    44   ar
    42    44    45    1
    43    45    46    1
    44    45    47    1
    45    45    48    1
    46     9     2   ar
    47    44    38   ar
    48    15    10   ar
    49    36    31   ar
    50    28    29    1
    51    28    30    1
@<TRIPOS>MOLECULE
*****
 48 51 0 0 0
SMALL
GASTEIGER

@<TRIPOS>ATOM
      1 C          65.0571   86.9206   14.8792 C.3     1  UNL1        0.0503
      2 C          63.9419   87.0614   13.8860 C.ar    1  UNL1        0.0465
      3 C          63.2999   88.3987   13.6637 C.ar    1  UNL1        0.0703
      4 C          62.1847   88.5395   12.6705 C.ar    1  UNL1        0.2654
      5 O          61.5427   89.8769   12.4482 O.2     1  UNL1       -0.2668
      6 N          61.7114   87.3429   11.8997 N.ar    1  UNL1       -0.2470
      7 C          62.3533   86.0056   12.1220 C.ar    1  UNL1        0.3338
      8 O          61.9640   85.2946   11.5639 O.2     1  UNL1       -0.2462
      9 N          63.4686   85.8649   13.1152 N.ar    1  UNL1       -0.2806
     10 C          63.7732   89.5953   14.4345 C.ar    1  UNL1        0.0362
     11 C          63.3745   89.7684   15.8702 C.ar    1  UNL1        0.0026
     12 C          63.8478   90.9650   16.6410 C.ar    1  UNL1        0.0033
     13 C          64.7198   91.9885   15.9762 C.ar    1  UNL1        0.0392
     14 C          65.1185   91.8154   14.5405 C.ar    1  UNL1        0.1658
     15 C          64.6452   90.6189   13.7697 C.ar    1  UNL1        0.1739
     16 F          65.0440   90.4457   12.3340 F       1  UNL1       -0.2010
     17 O          65.9905   92.8389   13.8757 O.3     1  UNL1       -0.4732
     18 C          65.7166   93.2518   12.4598 C.3     1  UNL1        0.2055
     19 C          66.2657   94.5458   11.9363 C.3     1  UNL1        0.0473
     20 C          65.8429   95.0491   10.5881 C.3     1  UNL1        0.0042
     21 C          66.4890   94.5057    9.3482 C.3     1  UNL1        0.0060
     22 C          67.9622   94.2244    9.3318 C.3     1  UNL1        0.0417
     23 C          68.4565   92.8097    9.3962 C.2     1  UNL1        0.0503
     24 O          68.5578   92.1102   10.7192 O.co2   1  UNL1       -0.5492
     25 O          68.8494   92.0944    8.1376 O.co2   1  UNL1       -0.5492
     26 C          60.5961   87.4837   10.9065 C.3     1  UNL1        0.1334
     27 C          60.9043   87.7943    9.4717 C.3     1  UNL1        0.0968
     28 N          60.8577   89.2122    8.9845 N.3     1  UNL1       -0.3172
     29 H          61.0925   89.2387    7.9923 H       1  UNL1        0.1192
     30 H          61.5292   89.7739    9.5079 H       1  UNL1        0.1192
     31 C          61.2591   86.6870    8.5241 C.ar    1  UNL1       -0.0063
     32 C          62.6475   86.1191    8.5204 C.ar    1  UNL1       -0.0029
     33 C          63.0023   85.0117    7.5728 C.ar    1  UNL1       -0.0003
     34 C          61.9687   84.4723    6.6289 C.ar    1  UNL1       -0.0000
     35 C          60.5804   85.0402    6.6327 C.ar    1  UNL1       -0.0003
     36 C          60.2256   86.1475    7.5803 C.ar    1  UNL1       -0.0029
     37 C          64.1105   84.5275   13.3375 C.3     1  UNL1        0.1391
     38 C          63.2653   83.2894   13.3907 C.ar    1  UNL1        0.0319
     39 C          62.4048   83.0197   14.5893 C.ar    1  UNL1        0.1379
     40 F          62.3160   83.5806   15.3931 F       1  UNL1       -0.2044
     41 C          61.5596   81.7816   14.6425 C.ar    1  UNL1        0.0294
     42 C          61.5750   80.8133   13.4970 C.ar    1  UNL1        0.0022
     43 C          62.4355   81.0830   12.2984 C.ar    1  UNL1        0.0037
     44 C          63.2806   82.3210   12.2452 C.ar    1  UNL1        0.0714
     45 C          64.1412   82.5908   11.0466 C.3     1  UNL1        0.4184
     46 F          65.0017   82.8605    9.8479 F       1  UNL1       -0.1659
     47 F          65.3536   82.1678   11.8218 F       1  UNL1       -0.1659
     48 F          62.9287   83.0138   10.2713 F       1  UNL1       -0.1659
@<TRIPOS>UNITY_ATOM_ATTR
24 1
charge -1
@<TRIPOS>BOND
     1     1     2    1
     2     2     3   ar
     3     3    10    1
     4    10    11   ar
     5    11    12   ar
     6    12    13   ar
     7    13    14   ar
     8    14    17    1
     9    17    18    1
    10    18    19    1
    11    19    20    1
    12    20    21    1
    13    21    22    1
    14    22    23    1
    15    23    24   ar
    16    23    25   ar
    17    14    15   ar
    18    15    16    1
    19     3     4   ar
    20     4     5    2
    21     4     6   ar
    22     6    26    1
    23    26    27    1
    24    27    28    1
    25    27    31    1
    26    31    32   ar
    27    32    33   ar
    28    33    34   ar
    29    34    35   ar
    30    35    36   ar
    31     6     7   ar
    32     7     8    2
    33     7     9   ar
    34     9    37    1
    35    37    38    1
    36    38    39   ar
    37    39    40    1
    38    39    41   ar
    39    41    42   ar
    40    42    43   ar
    41    43    44   ar
    42    44    45    1
    43    45    46    1
    44    45    47    1
    45    45    48    1
    46     9     2   ar
    47    44    38   ar
    48    15    10   ar
    49    36    31   ar
    50    28    29    1
    51    28    30    1
@<TRIPOS>MOLECULE
*****
 48 51 0 0 0
SMALL
GASTEIGER

@<TRIPOS>ATOM
      1 C          62.8163   86.3550   12.3335 C.3     1  UNL1        0.0503
      2 C          63.1077   87.8253   12.2743 C.ar    1  UNL1        0.0465
      3 C          62.4579   88.6770   11.2245 C.ar    1  UNL1        0.0703
      4 C          62.7493   90.1472   11.1653 C.ar    1  UNL1        0.2654
      5 O          62.0995   90.9990   10.1154 O.2     1  UNL1       -0.2668
      6 N          63.6905   90.7657   12.1560 N.ar    1  UNL1       -0.2470
      7 C          64.3403   89.9140   13.2059 C.ar    1  UNL1        0.3338
      8 O          64.9367   90.4240   13.7999 O.2     1  UNL1       -0.2462
      9 N          64.0489   88.4438   13.2650 N.ar    1  UNL1       -0.2806
     10 C          61.5167   88.0585   10.2337 C.ar    1  UNL1        0.0362
     11 C          60.0515   88.3740   10.2932 C.ar    1  UNL1        0.0026
     12 C          59.1102   87.7555    9.3024 C.ar    1  UNL1        0.0033
     13 C          59.6343   86.8215    8.2521 C.ar    1  UNL1        0.0392
     14 C          61.0996   86.5060    8.1927 C.ar    1  UNL1        0.1658
     15 C          62.0407   87.1245    9.1835 C.ar    1  UNL1        0.1739
     16 F          63.5060   86.8089    9.1240 F       1  UNL1       -0.2010
     17 O          61.6236   85.5719    7.1425 O.3     1  UNL1       -0.4732
     18 C          62.7337   84.6187    7.4730 C.3     1  UNL1        0.2055
     19 C          62.6925   83.8334    8.7503 C.3     1  UNL1        0.0473
     20 C          63.9246   83.7140    9.5973 C.3     1  UNL1        0.0042
     21 C          63.9847   82.6925   10.6941 C.3     1  UNL1        0.0060
     22 C          62.8689   82.5970   11.6920 C.3     1  UNL1        0.0417
     23 C          62.6625   81.3296   12.4674 C.2     1  UNL1        0.0503
     24 O          62.3219   81.3903   13.9269 O.co2   1  UNL1       -0.5492
     25 O          62.7969   80.0015   11.7831 O.co2   1  UNL1       -0.5492
     26 C          63.9819   92.2360   12.0968 C.3     1  UNL1        0.1334
     27 C          65.3747   92.7351   12.3439 C.3     1  UNL1        0.0968
     28 N          65.8337   93.0151   13.7443 N.3     1  UNL1       -0.3172
     29 H          66.7989   93.3444   13.7262 H       1  UNL1        0.1192
     30 H          65.7763   92.1605   14.2982 H       1  UNL1        0.1192
     31 C          66.3085   92.9541   11.1906 C.ar    1  UNL1       -0.0063
     32 C          67.4287   91.9888   10.9388 C.ar    1  UNL1       -0.0029
     33 C          68.3625   92.2079    9.7855 C.ar    1  UNL1       -0.0003
     34 C          68.1761   93.3923    8.8841 C.ar    1  UNL1       -0.0000
     35 C          67.0560   94.3576    9.1360 C.ar    1  UNL1       -0.0003
     36 C          66.1222   94.1385   10.2892 C.ar    1  UNL1       -0.0029
     37 C          64.6988   87.5920   14.3150 C.3     1  UNL1        0.1391
     38 C          63.9464   87.2350   15.5625 C.ar    1  UNL1        0.0319
     39 C          63.4362   88.3178   16.4665 C.ar    1  UNL1        0.1379
     40 F          63.5357   89.2890   16.3422 F       1  UNL1       -0.2044
     41 C          62.6838   87.9607   17.7141 C.ar    1  UNL1        0.0294
     42 C          62.4416   86.5208   18.0577 C.ar    1  UNL1        0.0022
     43 C          62.9518   85.4380   17.1537 C.ar    1  UNL1        0.0037
     44 C          63.7042   85.7951   15.9061 C.ar    1  UNL1        0.0714
     45 C          64.2144   84.7122   15.0021 C.3     1  UNL1        0.4184
     46 F          64.7245   83.6294   14.0981 F       1  UNL1       -0.1659
     47 F          65.6177   85.1991   15.2109 F       1  UNL1       -0.1659
     48 F          62.8110   84.2254   14.7934 F       1  UNL1       -0.1659
@<TRIPOS>UNITY_ATOM_ATTR
24 1
charge -1
@<TRIPOS>BOND
     1     1     2    1
     2     2     3   ar
     3     3    10    1
     4    10    11   ar
     5    11    12   ar
     6    12    13   ar
     7    13    14   ar
     8    14    17    1
     9    17    18    1
    10    18    19    1
    11    19    20    1
    12    20    21    1
    13    21    22    1
    14    22    23    1
    15    23    24   ar
    16    23    25   ar
    17    14    15   ar
    18    15    16    1
    19     3     4   ar
    20     4     5    2
    21     4     6   ar
    22     6    26    1
    23    26    27    1
    24    27    28    1
    25    27    31    1
    26    31    32   ar
    27    32    33   ar
    28    33    34   ar
    29    34    35   ar
    30    35    36   ar
    31     6     7   ar
    32     7     8    2
    33     7     9   ar
    34     9    37    1
    35    37    38    1
    36    38    39   ar
    37    39    40    1
    38    39    41   ar
    39    41    42   ar
    40    42    43   ar
    41    43    44   ar
    42    44    45    1
    43    45    46    1
    44    45    47    1
    45    45    48    1
    46     9     2   ar
    47    44    38   ar
    48    15    10   ar
    49    36    31   ar
    50    28    29    1
    51    28    30    1
@<TRIPOS>MOLECULE
*****
 48 51 0 0 0
SMALL
GASTEIGER

@<TRIPOS>ATOM
      1 C          63.0594   84.1826   11.2492 C.3     1  UNL1        0.0503
      2 C          63.1095   85.5955   11.7503 C.ar    1  UNL1        0.0465
      3 C          62.5140   86.7029   10.9324 C.ar    1  UNL1        0.0703
      4 C          62.5641   88.1159   11.4334 C.ar    1  UNL1        0.2654
      5 O          61.9685   89.2233   10.6154 O.2     1  UNL1       -0.2668
      6 N          63.2098   88.4215   12.7523 N.ar    1  UNL1       -0.2470
      7 C          63.8054   87.3141   13.5702 C.ar    1  UNL1        0.3338
      8 O          64.2007   87.6294   14.4146 O.2     1  UNL1       -0.2462
      9 N          63.7552   85.9011   13.0692 N.ar    1  UNL1       -0.2806
     10 C          61.8682   86.3974    9.6134 C.ar    1  UNL1        0.0362
     11 C          62.6099   85.5995    8.5822 C.ar    1  UNL1        0.0026
     12 C          61.9641   85.2940    7.2631 C.ar    1  UNL1        0.0033
     13 C          60.5767   85.7863    6.9754 C.ar    1  UNL1        0.0392
     14 C          59.8351   86.5842    8.0067 C.ar    1  UNL1        0.1658
     15 C          60.4808   86.8897    9.3256 C.ar    1  UNL1        0.1739
     16 F          59.7392   87.6875   10.3569 F       1  UNL1       -0.2010
     17 O          58.4477   87.0765    7.7190 O.3     1  UNL1       -0.4732
     18 C          58.2470   88.3974    7.0371 C.3     1  UNL1        0.2055
     19 C          59.3606   89.4018    7.0052 C.3     1  UNL1        0.0473
     20 C          59.7011   90.1037    5.7241 C.3     1  UNL1        0.0042
     21 C          58.7529   91.1123    5.1465 C.3     1  UNL1        0.0060
     22 C          59.2588   92.4575    4.7170 C.3     1  UNL1        0.0417
     23 C          59.9742   92.6065    3.4071 C.2     1  UNL1        0.0503
     24 O          59.2339   93.1023    2.2004 O.co2   1  UNL1       -0.5492
     25 O          61.4300   92.2598    3.3038 O.co2   1  UNL1       -0.5492
     26 C          63.2600   89.8344   13.2534 C.3     1  UNL1        0.1334
     27 C          64.1009   90.8529   12.5424 C.3     1  UNL1        0.0968
     28 N          63.8603   91.1425   11.0903 N.3     1  UNL1       -0.3172
     29 H          64.5173   91.8549   10.7723 H       1  UNL1        0.1192
     30 H          62.9059   91.4797   10.9645 H       1  UNL1        0.1192
     31 C          65.1824   91.5818   13.2833 C.ar    1  UNL1       -0.0063
     32 C          65.6306   92.9350   12.8162 C.ar    1  UNL1       -0.0029
     33 C          66.7121   93.6639   13.5571 C.ar    1  UNL1       -0.0003
     34 C          67.3454   93.0397   14.7652 C.ar    1  UNL1       -0.0000
     35 C          66.8971   91.6867   15.2323 C.ar    1  UNL1       -0.0003
     36 C          65.8156   90.9577   14.4914 C.ar    1  UNL1       -0.0029
     37 C          64.3508   84.7937   13.8872 C.3     1  UNL1        0.1391
     38 C          63.7128   83.4362   13.8893 C.ar    1  UNL1        0.0319
     39 C          64.3024   82.3291   13.0668 C.ar    1  UNL1        0.1379
     40 F          65.0995   82.3783   12.4918 F       1  UNL1       -0.2044
     41 C          63.6642   80.9715   13.0689 C.ar    1  UNL1        0.0294
     42 C          62.4366   80.7212   13.8936 C.ar    1  UNL1        0.0022
     43 C          61.8470   81.8283   14.7162 C.ar    1  UNL1        0.0037
     44 C          62.4851   83.1858   14.7141 C.ar    1  UNL1        0.0714
     45 C          61.8955   84.2930   15.5366 C.3     1  UNL1        0.4184
     46 F          61.3059   85.4001   16.3592 F       1  UNL1       -0.1659
     47 F          62.6425   83.7973   16.7392 F       1  UNL1       -0.1659
     48 F          61.1485   84.7886   14.3340 F       1  UNL1       -0.1659
@<TRIPOS>UNITY_ATOM_ATTR
24 1
charge -1
@<TRIPOS>BOND
     1     1     2    1
     2     2     3   ar
     3     3    10    1
     4    10    11   ar
     5    11    12   ar
     6    12    13   ar
     7    13    14   ar
     8    14    17    1
     9    17    18    1
    10    18    19    1
    11    19    20    1
    12    20    21    1
    13    21    22    1
    14    22    23    1
    15    23    24   ar
    16    23    25   ar
    17    14    15   ar
    18    15    16    1
    19     3     4   ar
    20     4     5    2
    21     4     6   ar
    22     6    26    1
    23    26    27    1
    24    27    28    1
    25    27    31    1
    26    31    32   ar
    27    32    33   ar
    28    33    34   ar
    29    34    35   ar
    30    35    36   ar
    31     6     7   ar
    32     7     8    2
    33     7     9   ar
    34     9    37    1
    35    37    38    1
    36    38    39   ar
    37    39    40    1
    38    39    41   ar
    39    41    42   ar
    40    42    43   ar
    41    43    44   ar
    42    44    45    1
    43    45    46    1
    44    45    47    1
    45    45    48    1
    46     9     2   ar
    47    44    38   ar
    48    15    10   ar
    49    36    31   ar
    50    28    29    1
    51    28    30    1
@<TRIPOS>MOLECULE
*****
 48 51 0 0 0
SMALL
GASTEIGER

@<TRIPOS>ATOM
      1 C          64.8551   88.7716   14.4169 C.3     1  UNL1        0.0503
      2 C          63.7000   88.7206   13.4614 C.ar    1  UNL1        0.0465
      3 C          63.0879   87.4013   13.0943 C.ar    1  UNL1        0.0703
      4 C          61.9328   87.3503   12.1387 C.ar    1  UNL1        0.2654
      5 O          61.3208   86.0309   11.7717 O.2     1  UNL1       -0.2668
      6 N          61.3898   88.6186   11.5502 N.ar    1  UNL1       -0.2470
      7 C          62.0018   89.9379   11.9172 C.ar    1  UNL1        0.3338
      8 O          61.5666   90.7007   11.4729 O.2     1  UNL1       -0.2462
      9 N          63.1569   89.9889   12.8728 N.ar    1  UNL1       -0.2806
     10 C          63.6310   86.1329   13.6828 C.ar    1  UNL1        0.0362
     11 C          63.8306   86.0191   15.1651 C.ar    1  UNL1        0.0026
     12 C          64.3736   84.7507   15.7536 C.ar    1  UNL1        0.0033
     13 C          64.7170   83.5961   14.8598 C.ar    1  UNL1        0.0392
     14 C          64.5174   83.7099   13.3775 C.ar    1  UNL1        0.1658
     15 C          63.9744   84.9783   12.7890 C.ar    1  UNL1        0.1739
     16 F          63.7747   85.0920   11.3067 F       1  UNL1       -0.2010
     17 O          64.8608   82.5553   12.4837 O.3     1  UNL1       -0.4732
     18 C          64.2663   82.4681   11.1092 C.3     1  UNL1        0.2055
     19 C          63.0218   81.6626   10.8801 C.3     1  UNL1        0.0473
     20 C          63.0184   80.1900   11.1655 C.3     1  UNL1        0.0042
     21 C          62.4528   79.6776   12.4569 C.3     1  UNL1        0.0060
     22 C          62.6032   80.4829   13.7134 C.3     1  UNL1        0.0417
     23 C          61.4347   81.2508   14.2564 C.2     1  UNL1        0.0503
     24 O          60.0781   80.6132   14.3107 O.co2   1  UNL1       -0.5492
     25 O          61.6229   82.6565   14.7453 O.co2   1  UNL1       -0.5492
     26 C          60.2347   88.5677   10.5946 C.3     1  UNL1        0.1334
     27 C          60.4858   88.4804    9.1184 C.3     1  UNL1        0.0968
     28 N          60.1862   89.6557    8.2358 N.3     1  UNL1       -0.3172
     29 H          60.4151   89.4224    7.2696 H       1  UNL1        0.1192
     30 H          60.7444   90.4557    8.5338 H       1  UNL1        0.1192
     31 C          61.0366   87.2178    8.5247 C.ar    1  UNL1       -0.0063
     32 C          62.4416   86.7937    8.8349 C.ar    1  UNL1       -0.0029
     33 C          62.9924   85.5311    8.2412 C.ar    1  UNL1       -0.0003
     34 C          62.1382   84.6926    7.3373 C.ar    1  UNL1       -0.0000
     35 C          60.7332   85.1166    7.0270 C.ar    1  UNL1       -0.0003
     36 C          60.1825   86.3792    7.6207 C.ar    1  UNL1       -0.0029
     37 C          63.7690   91.3083   13.2399 C.3     1  UNL1        0.1391
     38 C          64.8989   91.8637   12.4245 C.ar    1  UNL1        0.0319
     39 C          64.7445   92.0262   10.9414 C.ar    1  UNL1        0.1379
     40 F          63.9532   91.8035   10.4004 F       1  UNL1       -0.2044
     41 C          65.8745   92.5815   10.1260 C.ar    1  UNL1        0.0294
     42 C          67.1588   92.9744   10.7938 C.ar    1  UNL1        0.0022
     43 C          67.3133   92.8119   12.2770 C.ar    1  UNL1        0.0037
     44 C          66.1834   92.2566   13.0923 C.ar    1  UNL1        0.0714
     45 C          66.3378   92.0941   14.5755 C.3     1  UNL1        0.4184
     46 F          66.4923   91.9316   16.0587 F       1  UNL1       -0.1659
     47 F          65.7211   93.4449   14.7877 F       1  UNL1       -0.1659
     48 F          66.9545   90.7433   14.3633 F       1  UNL1       -0.1659
@<TRIPOS>UNITY_ATOM_ATTR
24 1
charge -1
@<TRIPOS>BOND
     1     1     2    1
     2     2     3   ar
     3     3    10    1
     4    10    11   ar
     5    11    12   ar
     6    12    13   ar
     7    13    14   ar
     8    14    17    1
     9    17    18    1
    10    18    19    1
    11    19    20    1
    12    20    21    1
    13    21    22    1
    14    22    23    1
    15    23    24   ar
    16    23    25   ar
    17    14    15   ar
    18    15    16    1
    19     3     4   ar
    20     4     5    2
    21     4     6   ar
    22     6    26    1
    23    26    27    1
    24    27    28    1
    25    27    31    1
    26    31    32   ar
    27    32    33   ar
    28    33    34   ar
    29    34    35   ar
    30    35    36   ar
    31     6     7   ar
    32     7     8    2
    33     7     9   ar
    34     9    37    1
    35    37    38    1
    36    38    39   ar
    37    39    40    1
    38    39    41   ar
    39    41    42   ar
    40    42    43   ar
    41    43    44   ar
    42    44    45    1
    43    45    46    1
    44    45    47    1
    45    45    48    1
    46     9     2   ar
    47    44    38   ar
    48    15    10   ar
    49    36    31   ar
    50    28    29    1
    51    28    30    1
@<TRIPOS>MOLECULE
*****
 48 51 0 0 0
SMALL
GASTEIGER

@<TRIPOS>ATOM
      1 C          62.1473   85.2740   10.1074 C.3     1  UNL1        0.0503
      2 C          62.3307   86.4634   11.0028 C.ar    1  UNL1        0.0465
      3 C          61.5856   87.7348   10.7229 C.ar    1  UNL1        0.0703
      4 C          61.7690   88.9242   11.6183 C.ar    1  UNL1        0.2654
      5 O          61.0239   90.1956   11.3384 O.2     1  UNL1       -0.2668
      6 N          62.6974   88.8422   12.7936 N.ar    1  UNL1       -0.2470
      7 C          63.4424   87.5707   13.0734 C.ar    1  UNL1        0.3338
      8 O          64.0211   87.6309   13.8672 O.2     1  UNL1       -0.2462
      9 N          63.2590   86.3814   12.1780 N.ar    1  UNL1       -0.2806
     10 C          60.6572   87.8169    9.5476 C.ar    1  UNL1        0.0362
     11 C          59.7029   86.6944    9.2658 C.ar    1  UNL1        0.0026
     12 C          58.7745   86.7764    8.0904 C.ar    1  UNL1        0.0033
     13 C          58.8003   87.9810    7.1970 C.ar    1  UNL1        0.0392
     14 C          59.7546   89.1036    7.4788 C.ar    1  UNL1        0.1658
     15 C          60.6830   89.0214    8.6541 C.ar    1  UNL1        0.1739
     16 F          61.6373   90.1440    8.9360 F       1  UNL1       -0.2010
     17 O          59.7804   90.3081    6.5854 O.3     1  UNL1       -0.4732
     18 C          58.6989   90.5087    5.5654 C.3     1  UNL1        0.2055
     19 C          58.5596   91.8305    4.8701 C.3     1  UNL1        0.0473
     20 C          59.7673   92.5020    4.2866 C.3     1  UNL1        0.0042
     21 C          59.8658   92.7124    2.8047 C.3     1  UNL1        0.0060
     22 C          61.0359   93.4533    2.2285 C.3     1  UNL1        0.0417
     23 C          62.3852   92.8002    2.1765 C.2     1  UNL1        0.0503
     24 O          63.2830   93.0265    0.9964 O.co2   1  UNL1       -0.5492
     25 O          62.8368   91.9208    3.3048 O.co2   1  UNL1       -0.5492
     26 C          62.8807   90.0315   13.6890 C.3     1  UNL1        0.1334
     27 C          64.2385   90.6489   13.8472 C.3     1  UNL1        0.0968
     28 N          65.0974   90.2813   15.0209 N.3     1  UNL1       -0.3172
     29 H          65.9794   90.7911   14.9696 H       1  UNL1        0.1192
     30 H          65.2830   89.2785   15.0055 H       1  UNL1        0.1192
     31 C          64.7375   91.6339   12.8320 C.ar    1  UNL1       -0.0063
     32 C          65.7482   92.6700   13.2259 C.ar    1  UNL1       -0.0029
     33 C          66.2472   93.6550   12.2106 C.ar    1  UNL1       -0.0003
     34 C          65.7356   93.6039   10.8014 C.ar    1  UNL1       -0.0000
     35 C          64.7250   92.5678   10.4076 C.ar    1  UNL1       -0.0003
     36 C          64.2260   91.5828   11.4229 C.ar    1  UNL1       -0.0029
     37 C          64.0042   85.1099   12.4580 C.3     1  UNL1        0.1391
     38 C          63.2915   83.9434   13.0755 C.ar    1  UNL1        0.0319
     39 C          62.6064   84.0991   14.4008 C.ar    1  UNL1        0.1379
     40 F          62.5598   84.9134   14.9514 F       1  UNL1       -0.2044
     41 C          61.8937   82.9325   15.0183 C.ar    1  UNL1        0.0294
     42 C          61.8662   81.6103   14.3106 C.ar    1  UNL1        0.0022
     43 C          62.5513   81.4546   12.9853 C.ar    1  UNL1        0.0037
     44 C          63.2640   82.6211   12.3678 C.ar    1  UNL1        0.0714
     45 C          63.9491   82.4654   11.0425 C.3     1  UNL1        0.4184
     46 F          64.6342   82.3097    9.7172 F       1  UNL1       -0.1659
     47 F          62.7837   81.6699   10.5335 F       1  UNL1       -0.1659
     48 F          65.1145   83.2608   11.5515 F       1  UNL1       -0.1659
@<TRIPOS>UNITY_ATOM_ATTR
24 1
charge -1
@<TRIPOS>BOND
     1     1     2    1
     2     2     3   ar
     3     3    10    1
     4    10    11   ar
     5    11    12   ar
     6    12    13   ar
     7    13    14   ar
     8    14    17    1
     9    17    18    1
    10    18    19    1
    11    19    20    1
    12    20    21    1
    13    21    22    1
    14    22    23    1
    15    23    24   ar
    16    23    25   ar
    17    14    15   ar
    18    15    16    1
    19     3     4   ar
    20     4     5    2
    21     4     6   ar
    22     6    26    1
    23    26    27    1
    24    27    28    1
    25    27    31    1
    26    31    32   ar
    27    32    33   ar
    28    33    34   ar
    29    34    35   ar
    30    35    36   ar
    31     6     7   ar
    32     7     8    2
    33     7     9   ar
    34     9    37    1
    35    37    38    1
    36    38    39   ar
    37    39    40    1
    38    39    41   ar
    39    41    42   ar
    40    42    43   ar
    41    43    44   ar
    42    44    45    1
    43    45    46    1
    44    45    47    1
    45    45    48    1
    46     9     2   ar
    47    44    38   ar
    48    15    10   ar
    49    36    31   ar
    50    28    29    1
    51    28    30    1
