@<TRIPOS>MOLECULE
*****
 34 37 0 0 0
SMALL
GASTEIGER

@<TRIPOS>ATOM
      1 C          63.4513   86.0072   15.2417 C.ar    1  UNL1        0.1224
      2 N          63.8750   86.9381   14.1445 N.ar    1  UNL1       -0.2133
      3 C          63.8838   88.3326   14.6971 C.ar    1  UNL1        0.1685
      4 C          63.4654   88.2635   16.1360 C.ar    1  UNL1        0.1113
      5 N          63.1982   86.8264   16.4725 N.ar    1  UNL1       -0.3381
      6 H          62.9076   86.4814   17.3476 H       1  UNL1        0.1672
      7 N          64.2471   89.5775   13.9433 N.ar    1  UNL1       -0.2565
      8 C          65.3326   90.4758   14.4577 C.ar    1  UNL1        0.0857
      9 C          65.6959   91.7207   13.7039 C.ar    1  UNL1        0.0340
     10 C          64.9736   92.0673   12.4357 C.ar    1  UNL1        0.0569
     11 C          63.8881   91.1689   11.9213 C.ar    1  UNL1        0.0758
     12 C          63.5248   89.9240   12.6751 C.ar    1  UNL1        0.2672
     13 O          62.4393   89.0257   12.1607 O.2     1  UNL1       -0.2665
     14 N          65.3370   93.3122   11.6820 N.am    1  UNL1       -0.2790
     15 C          66.4650   93.2883   10.6936 C.2     1  UNL1        0.2678
     16 O          67.2298   92.0194   10.4588 O.2     1  UNL1       -0.2681
     17 H          64.8351   94.1450   11.8360 H       1  UNL1        0.1552
     18 C          66.8283   94.5333    9.9399 C.ar    1  UNL1        0.1419
     19 C          67.2017   94.6084    8.4891 C.ar    1  UNL1        0.0607
     20 S          67.4861   96.0433    8.1573 S.2     1  UNL1       -0.0638
     21 C          67.2886   96.8551    9.4031 C.ar    1  UNL1        0.1347
     22 N          66.8821   95.9218   10.5048 N.ar    1  UNL1       -0.2317
     23 C          63.1507   83.6837   16.3644 C.3     1  UNL1        0.0126
     24 C          63.3062   84.5186   15.1281 C.3     1  UNL1        0.0789
     25 C          63.3167   83.8649   13.7780 C.ar    1  UNL1       -0.0154
     26 C          63.4704   82.3770   13.6663 C.ar    1  UNL1       -0.0039
     27 C          63.4809   81.7234   12.3162 C.ar    1  UNL1       -0.0004
     28 C          63.3376   82.5577   11.0779 C.ar    1  UNL1        0.0038
     29 C          63.1839   84.0456   11.1896 C.ar    1  UNL1        0.0711
     30 C          63.1734   84.6992   12.5396 C.ar    1  UNL1       -0.0000
     31 C          63.0406   84.8799    9.9513 C.3     1  UNL1        0.4186
     32 F          62.8974   85.7141    8.7130 F       1  UNL1       -0.1659
     33 F          63.5942   83.7542    9.1289 F       1  UNL1       -0.1659
     34 F          62.4871   86.0056   10.7737 F       1  UNL1       -0.1659
@<TRIPOS>BOND
     1    23    24    1
     2    24    25    1
     3    25    26   ar
     4    26    27   ar
     5    27    28   ar
     6    28    29   ar
     7    29    31    1
     8    31    32    1
     9    31    33    1
    10    31    34    1
    11    29    30   ar
    12    24     1    1
    13     1     2   ar
    14     2     3   ar
    15     3     7    1
    16     7     8   ar
    17     8     9   ar
    18     9    10   ar
    19    10    14    1
    20    14    15   am
    21    15    16    2
    22    15    18    1
    23    18    19   ar
    24    19    20   ar
    25    20    21   ar
    26    21    22   ar
    27    10    11   ar
    28    11    12   ar
    29    12    13    2
    30     3     4   ar
    31     4     5   ar
    32    30    25   ar
    33     5     1   ar
    34    12     7   ar
    35    22    18   ar
    36    14    17    1
    37     5     6    1
@<TRIPOS>MOLECULE
*****
 34 37 0 0 0
SMALL
GASTEIGER

@<TRIPOS>ATOM
      1 C          63.2568   84.7940   14.4388 C.ar    1  UNL1        0.1224
      2 N          63.3399   85.9951   13.5441 N.ar    1  UNL1       -0.2133
      3 C          63.8726   87.1401   14.3536 C.ar    1  UNL1        0.1685
      4 C          64.1188   86.6467   15.7485 C.ar    1  UNL1        0.1113
      5 N          63.7382   85.1967   15.8012 N.ar    1  UNL1       -0.3381
      6 H          63.7945   84.6120   16.5912 H       1  UNL1        0.1672
      7 N          64.1163   88.5339   13.8555 N.ar    1  UNL1       -0.2565
      8 C          65.0409   89.4471   14.6047 C.ar    1  UNL1        0.0857
      9 C          65.2846   90.8408   14.1066 C.ar    1  UNL1        0.0340
     10 C          64.6038   91.3213   12.8593 C.ar    1  UNL1        0.0569
     11 C          63.6793   90.4081   12.1101 C.ar    1  UNL1        0.0758
     12 C          63.4355   89.0144   12.6082 C.ar    1  UNL1        0.2672
     13 O          62.5110   88.1012   11.8590 O.2     1  UNL1       -0.2665
     14 N          64.8476   92.7151   12.3613 N.am    1  UNL1       -0.2790
     15 C          66.1018   93.0316   11.6018 C.2     1  UNL1        0.2678
     16 O          67.1122   91.9542   11.3402 O.2     1  UNL1       -0.2681
     17 H          64.1845   93.4222   12.5330 H       1  UNL1        0.1552
     18 C          66.3455   94.4254   11.1039 C.ar    1  UNL1        0.1419
     19 C          67.0892   94.7983    9.8558 C.ar    1  UNL1        0.0607
     20 S          67.0916   96.2944    9.7472 S.2     1  UNL1       -0.0638
     21 C          66.3494   96.8461   10.9282 C.ar    1  UNL1        0.1347
     22 N          65.8882   95.6909   11.7666 N.ar    1  UNL1       -0.2317
     23 C          61.9298   82.6281   14.9844 C.3     1  UNL1        0.0126
     24 C          62.7766   83.4298   14.0409 C.3     1  UNL1        0.0789
     25 C          63.1433   82.8672   12.6996 C.ar    1  UNL1       -0.0154
     26 C          63.8730   83.7187   11.7033 C.ar    1  UNL1       -0.0039
     27 C          64.2396   83.1561   10.3620 C.ar    1  UNL1       -0.0004
     28 C          63.8767   81.7422   10.0170 C.ar    1  UNL1        0.0038
     29 C          63.1471   80.8908   11.0134 C.ar    1  UNL1        0.0711
     30 C          62.7804   81.4533   12.3546 C.ar    1  UNL1       -0.0000
     31 C          62.7841   79.4768   10.6684 C.3     1  UNL1        0.4186
     32 F          62.4212   78.0628   10.3234 F       1  UNL1       -0.1659
     33 F          62.4594   79.2089   12.1081 F       1  UNL1       -0.1659
     34 F          63.1089   79.7447    9.2287 F       1  UNL1       -0.1659
@<TRIPOS>BOND
     1    23    24    1
     2    24    25    1
     3    25    26   ar
     4    26    27   ar
     5    27    28   ar
     6    28    29   ar
     7    29    31    1
     8    31    32    1
     9    31    33    1
    10    31    34    1
    11    29    30   ar
    12    24     1    1
    13     1     2   ar
    14     2     3   ar
    15     3     7    1
    16     7     8   ar
    17     8     9   ar
    18     9    10   ar
    19    10    14    1
    20    14    15   am
    21    15    16    2
    22    15    18    1
    23    18    19   ar
    24    19    20   ar
    25    20    21   ar
    26    21    22   ar
    27    10    11   ar
    28    11    12   ar
    29    12    13    2
    30     3     4   ar
    31     4     5   ar
    32    30    25   ar
    33     5     1   ar
    34    12     7   ar
    35    22    18   ar
    36    14    17    1
    37     5     6    1
@<TRIPOS>MOLECULE
*****
 34 37 0 0 0
SMALL
GASTEIGER

@<TRIPOS>ATOM
      1 C          59.9023   88.0344    8.6670 C.ar    1  UNL1        0.1224
      2 N          60.3087   89.2847    7.9449 N.ar    1  UNL1       -0.2133
      3 C          59.5005   89.3756    6.6844 C.ar    1  UNL1        0.1685
      4 C          58.5946   88.1814    6.6276 C.ar    1  UNL1        0.1113
      5 N          58.8429   87.3525    7.8529 N.ar    1  UNL1       -0.3381
      6 H          58.3901   86.5090    8.0824 H       1  UNL1        0.1672
      7 N          59.5837   90.4687    5.6607 N.ar    1  UNL1       -0.2565
      8 C          60.9153   90.8708    5.0993 C.ar    1  UNL1        0.0857
      9 C          60.9985   91.9639    4.0756 C.ar    1  UNL1        0.0340
     10 C          59.7500   92.6550    3.6131 C.ar    1  UNL1        0.0569
     11 C          58.4184   92.2529    4.1745 C.ar    1  UNL1        0.0758
     12 C          58.3352   91.1598    5.1982 C.ar    1  UNL1        0.2672
     13 O          57.0036   90.7577    5.7596 O.2     1  UNL1       -0.2665
     14 N          59.8333   93.7481    2.5893 N.am    1  UNL1       -0.2790
     15 C          60.0239   93.4066    1.1412 C.2     1  UNL1        0.2678
     16 O          60.1312   91.9719    0.7168 O.2     1  UNL1       -0.2681
     17 H          59.7629   94.6898    2.8678 H       1  UNL1        0.1552
     18 C          60.1072   94.4998    0.1175 C.ar    1  UNL1        0.1419
     19 C          59.0923   95.5826   -0.1007 C.ar    1  UNL1        0.0607
     20 S          59.5779   96.4541   -1.2208 S.2     1  UNL1       -0.0638
     21 C          60.8929   95.9100   -1.6948 C.ar    1  UNL1        0.1347
     22 N          61.2200   94.7022   -0.8677 N.ar    1  UNL1       -0.2317
     23 C          60.0177   88.1891   11.2579 C.3     1  UNL1        0.0126
     24 C          60.4577   87.5508    9.9738 C.3     1  UNL1        0.0789
     25 C          61.4532   86.4290    9.9965 C.ar    1  UNL1       -0.0154
     26 C          62.1968   86.0607    8.7469 C.ar    1  UNL1       -0.0039
     27 C          63.1922   84.9389    8.7696 C.ar    1  UNL1       -0.0004
     28 C          63.4441   84.1853   10.0419 C.ar    1  UNL1        0.0038
     29 C          62.7005   84.5535   11.2914 C.ar    1  UNL1        0.0711
     30 C          61.7051   85.6754   11.2687 C.ar    1  UNL1       -0.0000
     31 C          62.9524   83.8000   12.5637 C.3     1  UNL1        0.4186
     32 F          63.2043   83.0464   13.8360 F       1  UNL1       -0.1659
     33 F          63.6039   85.0151   13.1545 F       1  UNL1       -0.1659
     34 F          62.3009   82.5848   11.9729 F       1  UNL1       -0.1659
@<TRIPOS>BOND
     1    23    24    1
     2    24    25    1
     3    25    26   ar
     4    26    27   ar
     5    27    28   ar
     6    28    29   ar
     7    29    31    1
     8    31    32    1
     9    31    33    1
    10    31    34    1
    11    29    30   ar
    12    24     1    1
    13     1     2   ar
    14     2     3   ar
    15     3     7    1
    16     7     8   ar
    17     8     9   ar
    18     9    10   ar
    19    10    14    1
    20    14    15   am
    21    15    16    2
    22    15    18    1
    23    18    19   ar
    24    19    20   ar
    25    20    21   ar
    26    21    22   ar
    27    10    11   ar
    28    11    12   ar
    29    12    13    2
    30     3     4   ar
    31     4     5   ar
    32    30    25   ar
    33     5     1   ar
    34    12     7   ar
    35    22    18   ar
    36    14    17    1
    37     5     6    1
@<TRIPOS>MOLECULE
*****
 34 37 0 0 0
SMALL
GASTEIGER

@<TRIPOS>ATOM
      1 C          59.3315   89.6386    6.4686 C.ar    1  UNL1        0.1224
      2 N          60.4080   90.2004    5.5879 N.ar    1  UNL1       -0.2133
      3 C          59.7990   91.2793    4.7423 C.ar    1  UNL1        0.1685
      4 C          58.3462   91.3844    5.1003 C.ar    1  UNL1        0.1113
      5 N          58.0573   90.3704    6.1673 N.ar    1  UNL1       -0.3381
      6 H          57.1845   90.2128    6.5947 H       1  UNL1        0.1672
      7 N          60.5169   92.1077    3.7183 N.ar    1  UNL1       -0.2565
      8 C          59.7899   93.2031    2.9962 C.ar    1  UNL1        0.0857
      9 C          60.5078   94.0315    1.9723 C.ar    1  UNL1        0.0340
     10 C          61.9526   93.7645    1.6705 C.ar    1  UNL1        0.0569
     11 C          62.6797   92.6691    2.3926 C.ar    1  UNL1        0.0758
     12 C          61.9618   91.8407    3.4166 C.ar    1  UNL1        0.2672
     13 O          62.6888   90.7453    4.1387 O.2     1  UNL1       -0.2665
     14 N          62.6704   94.5930    0.6465 N.am    1  UNL1       -0.2790
     15 C          62.6302   94.1980   -0.8000 C.2     1  UNL1        0.2678
     16 O          61.8723   92.9746   -1.2226 O.2     1  UNL1       -0.2681
     17 H          63.1679   95.3960    0.9239 H       1  UNL1        0.1552
     18 C          63.3480   95.0266   -1.8238 C.ar    1  UNL1        0.1419
     19 C          62.7947   95.4679   -3.1463 C.ar    1  UNL1        0.0607
     20 S          63.8499   96.2733   -3.8447 S.2     1  UNL1       -0.0638
     21 C          65.0554   96.3299   -2.9539 C.ar    1  UNL1        0.1347
     22 N          64.7452   95.5594   -1.7049 N.ar    1  UNL1       -0.2317
     23 C          58.8339   87.2125    7.2536 C.3     1  UNL1        0.0126
     24 C          59.4998   88.5383    7.4741 C.3     1  UNL1        0.0789
     25 C          60.3340   88.7639    8.7002 C.ar    1  UNL1       -0.0154
     26 C          60.5539   90.1566    9.2120 C.ar    1  UNL1       -0.0039
     27 C          61.3881   90.3822   10.4380 C.ar    1  UNL1       -0.0004
     28 C          62.0025   89.2150   11.1523 C.ar    1  UNL1        0.0038
     29 C          61.7826   87.8222   10.6406 C.ar    1  UNL1        0.0711
     30 C          60.9484   87.5967    9.4145 C.ar    1  UNL1       -0.0000
     31 C          62.3969   86.6550   11.3549 C.3     1  UNL1        0.4186
     32 F          63.0112   85.4878   12.0692 F       1  UNL1       -0.1659
     33 F          63.2612   87.5930   12.1442 F       1  UNL1       -0.1659
     34 F          61.5326   85.7170   10.5655 F       1  UNL1       -0.1659
@<TRIPOS>BOND
     1    23    24    1
     2    24    25    1
     3    25    26   ar
     4    26    27   ar
     5    27    28   ar
     6    28    29   ar
     7    29    31    1
     8    31    32    1
     9    31    33    1
    10    31    34    1
    11    29    30   ar
    12    24     1    1
    13     1     2   ar
    14     2     3   ar
    15     3     7    1
    16     7     8   ar
    17     8     9   ar
    18     9    10   ar
    19    10    14    1
    20    14    15   am
    21    15    16    2
    22    15    18    1
    23    18    19   ar
    24    19    20   ar
    25    20    21   ar
    26    21    22   ar
    27    10    11   ar
    28    11    12   ar
    29    12    13    2
    30     3     4   ar
    31     4     5   ar
    32    30    25   ar
    33     5     1   ar
    34    12     7   ar
    35    22    18   ar
    36    14    17    1
    37     5     6    1
@<TRIPOS>MOLECULE
*****
 34 37 0 0 0
SMALL
GASTEIGER

@<TRIPOS>ATOM
      1 C          59.4461   89.6865    6.5890 C.ar    1  UNL1        0.1224
      2 N          60.4939   90.2968    5.7061 N.ar    1  UNL1       -0.2133
      3 C          59.8190   91.2830    4.7995 C.ar    1  UNL1        0.1685
      4 C          58.3541   91.2822    5.1221 C.ar    1  UNL1        0.1113
      5 N          58.1237   90.2955    6.2281 N.ar    1  UNL1       -0.3381
      6 H          57.2567   90.0846    6.6441 H       1  UNL1        0.1672
      7 N          60.4911   92.1227    3.7538 N.ar    1  UNL1       -0.2565
      8 C          59.7238   93.2050    3.0539 C.ar    1  UNL1        0.0857
      9 C          60.3959   94.0446    2.0083 C.ar    1  UNL1        0.0340
     10 C          61.8352   93.8019    1.6626 C.ar    1  UNL1        0.0569
     11 C          62.6025   92.7196    2.3625 C.ar    1  UNL1        0.0758
     12 C          61.9304   91.8800    3.4081 C.ar    1  UNL1        0.2672
     13 O          62.6977   90.7977    4.1080 O.2     1  UNL1       -0.2665
     14 N          62.5072   94.6416    0.6169 N.am    1  UNL1       -0.2790
     15 C          62.4840   94.2110   -0.8198 C.2     1  UNL1        0.2678
     16 O          61.7888   92.9407   -1.2109 O.2     1  UNL1       -0.2681
     17 H          62.9635   95.4754    0.8735 H       1  UNL1        0.1552
     18 C          63.1559   95.0508   -1.8653 C.ar    1  UNL1        0.1419
     19 C          64.6161   95.3900   -1.9194 C.ar    1  UNL1        0.0607
     20 S          64.8483   96.2477   -3.1279 S.2     1  UNL1       -0.0638
     21 C          63.5317   96.4385   -3.8208 C.ar    1  UNL1        0.1347
     22 N          62.4858   95.6988   -3.0405 N.ar    1  UNL1       -0.2317
     23 C          59.4254   87.2017    7.3475 C.3     1  UNL1        0.0126
     24 C          59.6797   88.6492    7.6471 C.3     1  UNL1        0.0789
     25 C          60.1677   89.0596    9.0049 C.ar    1  UNL1       -0.0154
     26 C          59.3435   88.7572   10.2211 C.ar    1  UNL1       -0.0039
     27 C          59.8315   89.1676   11.5788 C.ar    1  UNL1       -0.0004
     28 C          61.1437   89.8804   11.7203 C.ar    1  UNL1        0.0038
     29 C          61.9679   90.1828   10.5041 C.ar    1  UNL1        0.0711
     30 C          61.4799   89.7724    9.1464 C.ar    1  UNL1       -0.0000
     31 C          63.2801   90.8956   10.6456 C.3     1  UNL1        0.4186
     32 F          64.5923   91.6084   10.7872 F       1  UNL1       -0.1659
     33 F          63.6042   90.0602   11.8486 F       1  UNL1       -0.1659
     34 F          62.9560   91.7310    9.4427 F       1  UNL1       -0.1659
@<TRIPOS>BOND
     1    23    24    1
     2    24    25    1
     3    25    26   ar
     4    26    27   ar
     5    27    28   ar
     6    28    29   ar
     7    29    31    1
     8    31    32    1
     9    31    33    1
    10    31    34    1
    11    29    30   ar
    12    24     1    1
    13     1     2   ar
    14     2     3   ar
    15     3     7    1
    16     7     8   ar
    17     8     9   ar
    18     9    10   ar
    19    10    14    1
    20    14    15   am
    21    15    16    2
    22    15    18    1
    23    18    19   ar
    24    19    20   ar
    25    20    21   ar
    26    21    22   ar
    27    10    11   ar
    28    11    12   ar
    29    12    13    2
    30     3     4   ar
    31     4     5   ar
    32    30    25   ar
    33     5     1   ar
    34    12     7   ar
    35    22    18   ar
    36    14    17    1
    37     5     6    1
@<TRIPOS>MOLECULE
*****
 34 37 0 0 0
SMALL
GASTEIGER

@<TRIPOS>ATOM
      1 C          63.8772   85.1559   13.8387 C.ar    1  UNL1        0.1224
      2 N          63.0438   85.5320   12.6496 N.ar    1  UNL1       -0.2133
      3 C          63.0702   87.0260   12.5188 C.ar    1  UNL1        0.1685
      4 C          63.9199   87.5734   13.6271 C.ar    1  UNL1        0.1113
      5 N          64.4187   86.4176   14.4428 N.ar    1  UNL1       -0.3381
      6 H          64.9994   86.4767   15.2356 H       1  UNL1        0.1672
      7 N          62.3699   87.8313   11.4647 N.ar    1  UNL1       -0.2565
      8 C          62.5701   89.3164   11.3991 C.ar    1  UNL1        0.0857
      9 C          61.8697   90.1217   10.3450 C.ar    1  UNL1        0.0340
     10 C          60.9692   89.4419    9.3566 C.ar    1  UNL1        0.0569
     11 C          60.7690   87.9568    9.4223 C.ar    1  UNL1        0.0758
     12 C          61.4693   87.1515   10.4764 C.ar    1  UNL1        0.2672
     13 O          61.2691   85.6664   10.5420 O.2     1  UNL1       -0.2665
     14 N          60.2689   90.2473    8.3026 N.am    1  UNL1       -0.2790
     15 C          59.4999   89.5547    7.2169 C.2     1  UNL1        0.2678
     16 O          59.4311   88.0566    7.1850 O.2     1  UNL1       -0.2681
     17 H          60.3140   91.2305    8.3235 H       1  UNL1        0.1552
     18 C          58.7996   90.3602    6.1629 C.ar    1  UNL1        0.1419
     19 C          59.4584   91.2455    5.1470 C.ar    1  UNL1        0.0607
     20 S          58.3835   91.8543    4.2961 S.2     1  UNL1       -0.0638
     21 C          57.0604   91.3452    4.7861 C.ar    1  UNL1        0.1347
     22 N          57.3176   90.4219    5.9399 N.ar    1  UNL1       -0.2317
     23 C          65.2304   83.5024   15.3168 C.3     1  UNL1        0.0126
     24 C          64.1255   83.7628   14.3363 C.3     1  UNL1        0.0789
     25 C          63.2688   82.6301   13.8535 C.ar    1  UNL1       -0.0154
     26 C          62.1160   82.1537   14.6865 C.ar    1  UNL1       -0.0039
     27 C          61.2594   81.0210   14.2036 C.ar    1  UNL1       -0.0004
     28 C          61.5556   80.3648   12.8877 C.ar    1  UNL1        0.0038
     29 C          62.7084   80.8412   12.0547 C.ar    1  UNL1        0.0711
     30 C          63.5650   81.9739   12.5376 C.ar    1  UNL1       -0.0000
     31 C          63.0045   80.1849   10.7388 C.3     1  UNL1        0.4186
     32 F          63.3007   79.5287    9.4229 F       1  UNL1       -0.1659
     33 F          62.5984   78.8583   11.3090 F       1  UNL1       -0.1659
     34 F          63.4107   81.5116   10.1686 F       1  UNL1       -0.1659
@<TRIPOS>BOND
     1    23    24    1
     2    24    25    1
     3    25    26   ar
     4    26    27   ar
     5    27    28   ar
     6    28    29   ar
     7    29    31    1
     8    31    32    1
     9    31    33    1
    10    31    34    1
    11    29    30   ar
    12    24     1    1
    13     1     2   ar
    14     2     3   ar
    15     3     7    1
    16     7     8   ar
    17     8     9   ar
    18     9    10   ar
    19    10    14    1
    20    14    15   am
    21    15    16    2
    22    15    18    1
    23    18    19   ar
    24    19    20   ar
    25    20    21   ar
    26    21    22   ar
    27    10    11   ar
    28    11    12   ar
    29    12    13    2
    30     3     4   ar
    31     4     5   ar
    32    30    25   ar
    33     5     1   ar
    34    12     7   ar
    35    22    18   ar
    36    14    17    1
    37     5     6    1
