@<TRIPOS>MOLECULE
*****
 28 30 0 0 0
SMALL
GASTEIGER

@<TRIPOS>ATOM
      1 N          62.8211   90.7544   11.4137 N.ar    1  UNL1       -0.3190
      2 C          63.7350   91.5983   10.5755 C.ar    1  UNL1        0.0823
      3 C          64.8428   92.0966   11.4557 C.ar    1  UNL1        0.0895
      4 C          64.6134   91.5607   12.8378 C.ar    1  UNL1        0.1028
      5 N          65.3808   91.7209   14.1166 N.ar    1  UNL1       -0.2425
      6 C          64.8988   91.0515   15.3694 C.ar    1  UNL1        0.0946
      7 C          63.6493   90.2221   15.3434 C.ar    1  UNL1       -0.0013
      8 C          63.1672   89.5527   16.5963 C.3     1  UNL1        0.0327
      9 C          62.8818   90.0619   14.0647 C.ar    1  UNL1        0.0160
     10 C          63.3639   90.7312   12.8118 C.ar    1  UNL1        0.0780
     11 C          65.9802   92.9763   11.0287 C.2     1  UNL1        0.2489
     12 O          67.3141   92.8586   11.7045 O.2     1  UNL1       -0.2700
     13 N          65.7837   93.9739    9.9258 N.am    1  UNL1       -0.2984
     14 H          64.9082   94.0512    9.4822 H       1  UNL1        0.1498
     15 C          66.9212   94.8536    9.4988 C.3     1  UNL1        0.1215
     16 C          68.1388   94.2499    8.8640 C.3     1  UNL1        0.1583
     17 O          69.1496   93.5351    9.7109 O.3     1  UNL1       -0.3802
     18 H          69.5757   94.1683   10.3096 H       1  UNL1        0.2105
     19 C          61.5818   90.0564   10.9373 C.3     1  UNL1        0.1518
     20 C          60.9375   86.5507    9.1921 C.ar    1  UNL1        0.2234
     21 N          61.6623   85.6303   10.1288 N.ar    1  UNL1       -0.1896
     22 C          62.3603   86.1852   11.3350 C.ar    1  UNL1        0.2012
     23 N          62.3335   87.6605   11.6046 N.ar    1  UNL1       -0.2265
     24 C          61.6086   88.5809   10.6678 C.ar    1  UNL1        0.0841
     25 C          60.9107   88.0260    9.4616 C.ar    1  UNL1        0.0468
     26 C          60.1858   88.9466    8.5250 C.3     1  UNL1        0.0372
     27 C          61.0010   85.1683    6.9933 C.3     1  UNL1        0.2542
     28 O          60.2395   85.9958    7.9859 O.3     1  UNL1       -0.4563
@<TRIPOS>BOND
     1    27    28    1
     2    28    20    1
     3    20    21   ar
     4    21    22   ar
     5    22    23   ar
     6    23    24   ar
     7    24    19    1
     8    19     1    1
     9     1     2   ar
    10     2     3   ar
    11     3    11    1
    12    11    12    2
    13    11    13   am
    14    13    15    1
    15    15    16    1
    16    16    17    1
    17     3     4   ar
    18     4     5   ar
    19     5     6   ar
    20     6     7   ar
    21     7     8    1
    22     7     9   ar
    23     9    10   ar
    24    24    25   ar
    25    25    26    1
    26    25    20   ar
    27    10     1   ar
    28    10     4   ar
    29    13    14    1
    30    17    18    1
@<TRIPOS>MOLECULE
*****
 28 30 0 0 0
SMALL
GASTEIGER

@<TRIPOS>ATOM
      1 N          63.2138   90.0323   12.5079 N.ar    1  UNL1       -0.3190
      2 C          62.4153   90.0924   11.2395 C.ar    1  UNL1        0.0823
      3 C          62.1000   88.6862   10.8233 C.ar    1  UNL1        0.0895
      4 C          62.7035   87.7570   11.8344 C.ar    1  UNL1        0.1028
      5 N          62.7152   86.2610   11.9416 N.ar    1  UNL1       -0.2425
      6 C          63.4153   85.5968   13.0900 C.ar    1  UNL1        0.0946
      7 C          64.1037   86.4287   14.1311 C.ar    1  UNL1       -0.0013
      8 C          64.8038   85.7645   15.2795 C.3     1  UNL1        0.0327
      9 C          64.0920   87.9248   14.0239 C.ar    1  UNL1        0.0160
     10 C          63.3919   88.5890   12.8756 C.ar    1  UNL1        0.0780
     11 C          61.3183   88.2804    9.6091 C.2     1  UNL1        0.2489
     12 O          60.5864   89.3157    8.8077 O.2     1  UNL1       -0.2700
     13 N          61.2685   86.8391    9.1963 N.am    1  UNL1       -0.2984
     14 H          61.7488   86.1595    9.7223 H       1  UNL1        0.1498
     15 C          60.4868   86.4333    7.9821 C.3     1  UNL1        0.1215
     16 C          59.0097   86.6874    7.9217 C.3     1  UNL1        0.1583
     17 O          58.4899   87.9400    7.2808 O.3     1  UNL1       -0.3802
     18 H          58.7657   88.7092    7.8035 H       1  UNL1        0.2105
     19 C          63.7416   91.2089   13.2741 C.3     1  UNL1        0.1518
     20 C          67.2118   92.5285   11.8717 C.ar    1  UNL1        0.2234
     21 N          68.1093   92.2675   13.0449 N.ar    1  UNL1       -0.1896
     22 C          67.5509   91.6536   14.2944 C.ar    1  UNL1        0.2012
     23 N          66.0951   91.3007   14.3709 N.ar    1  UNL1       -0.2265
     24 C          65.1975   91.5618   13.1977 C.ar    1  UNL1        0.0841
     25 C          65.7559   92.1757   11.9482 C.ar    1  UNL1        0.0468
     26 C          64.8583   92.4367   10.7750 C.3     1  UNL1        0.0372
     27 C          68.3396   92.2664    9.5460 C.3     1  UNL1        0.2542
     28 O          67.7701   93.1424   10.6222 O.3     1  UNL1       -0.4563
@<TRIPOS>BOND
     1    27    28    1
     2    28    20    1
     3    20    21   ar
     4    21    22   ar
     5    22    23   ar
     6    23    24   ar
     7    24    19    1
     8    19     1    1
     9     1     2   ar
    10     2     3   ar
    11     3    11    1
    12    11    12    2
    13    11    13   am
    14    13    15    1
    15    15    16    1
    16    16    17    1
    17     3     4   ar
    18     4     5   ar
    19     5     6   ar
    20     6     7   ar
    21     7     8    1
    22     7     9   ar
    23     9    10   ar
    24    24    25   ar
    25    25    26    1
    26    25    20   ar
    27    10     1   ar
    28    10     4   ar
    29    13    14    1
    30    17    18    1
@<TRIPOS>MOLECULE
*****
 28 30 0 0 0
SMALL
GASTEIGER

@<TRIPOS>ATOM
      1 N          62.6388   89.1826   11.4938 N.ar    1  UNL1       -0.3190
      2 C          63.1139   88.0320   12.3307 C.ar    1  UNL1        0.0823
      3 C          62.4990   86.7773   11.7854 C.ar    1  UNL1        0.0895
      4 C          61.6438   87.1523   10.6115 C.ar    1  UNL1        0.1028
      5 N          60.7976   86.3322    9.6835 N.ar    1  UNL1       -0.2425
      6 C          60.0378   86.9987    8.5751 C.ar    1  UNL1        0.0946
      7 C          60.1242   88.4854    8.3949 C.ar    1  UNL1       -0.0013
      8 C          59.3644   89.1519    7.2865 C.3     1  UNL1        0.0327
      9 C          60.9704   89.3055    9.3230 C.ar    1  UNL1        0.0160
     10 C          61.7302   88.6389   10.4313 C.ar    1  UNL1        0.0780
     11 C          62.7033   85.3908   12.3202 C.2     1  UNL1        0.2489
     12 O          63.0847   85.1896   13.7568 O.2     1  UNL1       -0.2700
     13 N          62.5263   84.2053   11.4181 N.am    1  UNL1       -0.2984
     14 H          62.2759   84.3373   10.4752 H       1  UNL1        0.1498
     15 C          62.7306   82.8189   11.9528 C.3     1  UNL1        0.1215
     16 C          64.1067   82.2229   11.9852 C.3     1  UNL1        0.1583
     17 O          65.1784   82.7610   11.0842 O.3     1  UNL1       -0.3802
     18 H          64.9449   82.5802   10.1602 H       1  UNL1        0.2105
     19 C          63.0075   90.6239   11.6857 C.3     1  UNL1        0.1518
     20 C          65.7833   92.3036   13.9713 C.ar    1  UNL1        0.2234
     21 N          65.3163   91.8891   15.3352 N.ar    1  UNL1       -0.1896
     22 C          64.0798   91.0529   15.4826 C.ar    1  UNL1        0.2012
     23 N          63.3102   90.6311   14.2661 N.ar    1  UNL1       -0.2265
     24 C          63.7771   91.0456   12.9022 C.ar    1  UNL1        0.0841
     25 C          65.0136   91.8818   12.7549 C.ar    1  UNL1        0.0468
     26 C          65.4805   92.2963   11.3909 C.3     1  UNL1        0.0372
     27 C          67.7494   93.6211   15.0429 C.3     1  UNL1        0.2542
     28 O          67.0198   93.1398   13.8239 O.3     1  UNL1       -0.4563
@<TRIPOS>BOND
     1    27    28    1
     2    28    20    1
     3    20    21   ar
     4    21    22   ar
     5    22    23   ar
     6    23    24   ar
     7    24    19    1
     8    19     1    1
     9     1     2   ar
    10     2     3   ar
    11     3    11    1
    12    11    12    2
    13    11    13   am
    14    13    15    1
    15    15    16    1
    16    16    17    1
    17     3     4   ar
    18     4     5   ar
    19     5     6   ar
    20     6     7   ar
    21     7     8    1
    22     7     9   ar
    23     9    10   ar
    24    24    25   ar
    25    25    26    1
    26    25    20   ar
    27    10     1   ar
    28    10     4   ar
    29    13    14    1
    30    17    18    1
@<TRIPOS>MOLECULE
*****
 28 30 0 0 0
SMALL
GASTEIGER

@<TRIPOS>ATOM
      1 N          63.1033   89.9146   12.3168 N.ar    1  UNL1       -0.3190
      2 C          62.2980   89.9520   11.0518 C.ar    1  UNL1        0.0823
      3 C          61.9906   88.5382   10.6561 C.ar    1  UNL1        0.0895
      4 C          62.6058   87.6270   11.6764 C.ar    1  UNL1        0.1028
      5 N          62.6286   86.1326   11.8035 N.ar    1  UNL1       -0.2425
      6 C          63.3392   85.4888   12.9570 C.ar    1  UNL1        0.0946
      7 C          64.0269   86.3394   13.9834 C.ar    1  UNL1       -0.0013
      8 C          64.7375   85.6956   15.1370 C.3     1  UNL1        0.0327
      9 C          64.0041   87.8338   13.8563 C.ar    1  UNL1        0.0160
     10 C          63.2935   88.4776   12.7028 C.ar    1  UNL1        0.0780
     11 C          61.2057   88.1107    9.4514 C.2     1  UNL1        0.2489
     12 O          60.5144   89.1370    8.6037 O.2     1  UNL1       -0.2700
     13 N          61.1121   86.6567    9.0945 N.am    1  UNL1       -0.2984
     14 H          61.5659   85.9831    9.6509 H       1  UNL1        0.1498
     15 C          60.3272   86.2292    7.8898 C.3     1  UNL1        0.1215
     16 C          58.8656   86.5524    7.7937 C.3     1  UNL1        0.1583
     17 O          58.4263   87.8989    7.2999 O.3     1  UNL1       -0.3802
     18 H          58.7021   88.5809    7.9322 H       1  UNL1        0.2105
     19 C          63.6265   91.1050   13.0645 C.3     1  UNL1        0.1518
     20 C          67.3782   92.3915   13.2080 C.ar    1  UNL1        0.2234
     21 N          67.5233   92.9950   11.8424 N.ar    1  UNL1       -0.1896
     22 C          66.3695   92.9685   10.8843 C.ar    1  UNL1        0.2012
     23 N          65.0706   92.3386   11.2916 N.ar    1  UNL1       -0.2265
     24 C          64.9255   91.7350   12.6571 C.ar    1  UNL1        0.0841
     25 C          66.0793   91.7615   13.6153 C.ar    1  UNL1        0.0468
     26 C          65.9340   91.1579   14.9808 C.3     1  UNL1        0.0372
     27 C          68.5025   93.3383   15.3502 C.3     1  UNL1        0.2542
     28 O          68.5319   92.4179   14.1661 O.3     1  UNL1       -0.4563
@<TRIPOS>BOND
     1    27    28    1
     2    28    20    1
     3    20    21   ar
     4    21    22   ar
     5    22    23   ar
     6    23    24   ar
     7    24    19    1
     8    19     1    1
     9     1     2   ar
    10     2     3   ar
    11     3    11    1
    12    11    12    2
    13    11    13   am
    14    13    15    1
    15    15    16    1
    16    16    17    1
    17     3     4   ar
    18     4     5   ar
    19     5     6   ar
    20     6     7   ar
    21     7     8    1
    22     7     9   ar
    23     9    10   ar
    24    24    25   ar
    25    25    26    1
    26    25    20   ar
    27    10     1   ar
    28    10     4   ar
    29    13    14    1
    30    17    18    1
@<TRIPOS>MOLECULE
*****
 28 30 0 0 0
SMALL
GASTEIGER

@<TRIPOS>ATOM
      1 N          61.5921   86.8700   11.1493 N.ar    1  UNL1       -0.3190
      2 C          60.6404   86.6729   10.0068 C.ar    1  UNL1        0.0823
      3 C          60.5427   87.9679    9.2562 C.ar    1  UNL1        0.0895
      4 C          61.4340   88.9654    9.9349 C.ar    1  UNL1        0.1028
      5 N          61.7388   90.4039    9.6387 N.ar    1  UNL1       -0.2425
      6 C          62.6921   91.1639   10.5125 C.ar    1  UNL1        0.0946
      7 C          63.3407   90.4853   11.6825 C.ar    1  UNL1       -0.0013
      8 C          64.2940   91.2453   12.5563 C.3     1  UNL1        0.0327
      9 C          63.0359   89.0468   11.9787 C.ar    1  UNL1        0.0160
     10 C          62.0825   88.2869   11.1049 C.ar    1  UNL1        0.0780
     11 C          59.7014   88.2210    8.0404 C.2     1  UNL1        0.2489
     12 O          58.7557   87.1653    7.5497 O.2     1  UNL1       -0.2700
     13 N          59.8060   89.5300    7.3153 N.am    1  UNL1       -0.2984
     14 H          60.4267   90.2230    7.6373 H       1  UNL1        0.1498
     15 C          58.9647   89.7831    6.0994 C.3     1  UNL1        0.1215
     16 C          58.8590   91.1692    5.5359 C.3     1  UNL1        0.1583
     17 O          57.5104   91.7745    5.2816 O.3     1  UNL1       -0.3802
     18 H          57.0608   91.2790    4.5793 H       1  UNL1        0.2105
     19 C          61.9844   85.8325   12.1591 C.3     1  UNL1        0.1518
     20 C          63.7168   82.2632   12.2563 C.ar    1  UNL1        0.2234
     21 N          64.2461   82.1668   10.8561 N.ar    1  UNL1       -0.1896
     22 C          64.0215   83.2922    9.8902 C.ar    1  UNL1        0.2012
     23 N          63.2676   84.5141   10.3245 N.ar    1  UNL1       -0.2265
     24 C          62.7383   84.6105   11.7247 C.ar    1  UNL1        0.0841
     25 C          62.9630   83.4851   12.6906 C.ar    1  UNL1        0.0468
     26 C          62.4336   83.5816   14.0908 C.3     1  UNL1        0.0372
     27 C          62.8361   80.1658   13.5114 C.3     1  UNL1        0.2542
     28 O          63.9414   81.1377   13.2222 O.3     1  UNL1       -0.4563
@<TRIPOS>BOND
     1    27    28    1
     2    28    20    1
     3    20    21   ar
     4    21    22   ar
     5    22    23   ar
     6    23    24   ar
     7    24    19    1
     8    19     1    1
     9     1     2   ar
    10     2     3   ar
    11     3    11    1
    12    11    12    2
    13    11    13   am
    14    13    15    1
    15    15    16    1
    16    16    17    1
    17     3     4   ar
    18     4     5   ar
    19     5     6   ar
    20     6     7   ar
    21     7     8    1
    22     7     9   ar
    23     9    10   ar
    24    24    25   ar
    25    25    26    1
    26    25    20   ar
    27    10     1   ar
    28    10     4   ar
    29    13    14    1
    30    17    18    1
@<TRIPOS>MOLECULE
*****
 28 30 0 0 0
SMALL
GASTEIGER

@<TRIPOS>ATOM
      1 N          62.1627   89.1644   11.3300 N.ar    1  UNL1       -0.3190
      2 C          62.7705   88.0270   12.0962 C.ar    1  UNL1        0.0823
      3 C          62.3740   86.7482   11.4198 C.ar    1  UNL1        0.0895
      4 C          61.5211   87.0952   10.2357 C.ar    1  UNL1        0.1028
      5 N          60.8465   86.2444    9.2008 N.ar    1  UNL1       -0.2425
      6 C          60.0414   86.8869    8.1105 C.ar    1  UNL1        0.0946
      7 C          59.9108   88.3801    8.0550 C.ar    1  UNL1       -0.0013
      8 C          59.1056   89.0226    6.9645 C.3     1  UNL1        0.0327
      9 C          60.5854   89.2310    9.0898 C.ar    1  UNL1        0.0160
     10 C          61.3905   88.5885   10.1802 C.ar    1  UNL1        0.0780
     11 C          62.7622   85.3652   11.8518 C.2     1  UNL1        0.2489
     12 O          63.1340   84.3358   10.8262 O.2     1  UNL1       -0.2700
     13 N          62.7785   85.0116   13.3095 N.am    1  UNL1       -0.2984
     14 H          62.5344   85.6872   13.9827 H       1  UNL1        0.1498
     15 C          63.1667   83.6286   13.7414 C.3     1  UNL1        0.1215
     16 C          62.2356   82.8209   14.5962 C.3     1  UNL1        0.1583
     17 O          62.4871   81.3565   14.8023 O.3     1  UNL1       -0.3802
     18 H          62.3809   80.8884   13.9594 H       1  UNL1        0.2105
     19 C          62.3025   90.6217   11.6564 C.3     1  UNL1        0.1518
     20 C          65.7072   91.8107   13.3132 C.ar    1  UNL1        0.2234
     21 N          66.3918   92.4380   12.1351 N.ar    1  UNL1       -0.1896
     22 C          65.7133   92.4599   10.7975 C.ar    1  UNL1        0.2012
     23 N          64.3503   91.8545   10.6379 N.ar    1  UNL1       -0.2265
     24 C          63.6657   91.2272   11.8160 C.ar    1  UNL1        0.0841
     25 C          64.3442   91.2053   13.1536 C.ar    1  UNL1        0.0468
     26 C          63.6595   90.5780   14.3316 C.3     1  UNL1        0.0372
     27 C          66.8861   93.0655   15.2588 C.3     1  UNL1        0.2542
     28 O          66.3857   91.7889   14.6508 O.3     1  UNL1       -0.4563
@<TRIPOS>BOND
     1    27    28    1
     2    28    20    1
     3    20    21   ar
     4    21    22   ar
     5    22    23   ar
     6    23    24   ar
     7    24    19    1
     8    19     1    1
     9     1     2   ar
    10     2     3   ar
    11     3    11    1
    12    11    12    2
    13    11    13   am
    14    13    15    1
    15    15    16    1
    16    16    17    1
    17     3     4   ar
    18     4     5   ar
    19     5     6   ar
    20     6     7   ar
    21     7     8    1
    22     7     9   ar
    23     9    10   ar
    24    24    25   ar
    25    25    26    1
    26    25    20   ar
    27    10     1   ar
    28    10     4   ar
    29    13    14    1
    30    17    18    1
@<TRIPOS>MOLECULE
*****
 28 30 0 0 0
SMALL
GASTEIGER

@<TRIPOS>ATOM
      1 N          62.5930   86.5430   11.6919 N.ar    1  UNL1       -0.3190
      2 C          61.6607   86.2006   10.5679 C.ar    1  UNL1        0.0823
      3 C          61.2420   87.4804    9.9069 C.ar    1  UNL1        0.0895
      4 C          61.9156   88.6137   10.6224 C.ar    1  UNL1        0.1028
      5 N          61.8765   90.0983   10.4120 N.ar    1  UNL1       -0.2425
      6 C          62.6723   91.0035   11.3047 C.ar    1  UNL1        0.0946
      7 C          63.5073   90.4242   12.4079 C.ar    1  UNL1       -0.0013
      8 C          64.3032   91.3295   13.3007 C.3     1  UNL1        0.0327
      9 C          63.5464   88.9395   12.6184 C.ar    1  UNL1        0.0160
     10 C          62.7506   88.0343   11.7257 C.ar    1  UNL1        0.0780
     11 C          60.3129   87.6050    8.7359 C.2     1  UNL1        0.2489
     12 O          59.6942   86.3777    8.1354 O.2     1  UNL1       -0.2700
     13 N          60.0024   88.9572    8.1655 N.am    1  UNL1       -0.2984
     14 H          60.4084   89.7628    8.5596 H       1  UNL1        0.1498
     15 C          59.0732   89.0819    6.9945 C.3     1  UNL1        0.1215
     16 C          59.3892   90.0409    5.8852 C.3     1  UNL1        0.1583
     17 O          58.7647   91.4046    5.8724 O.3     1  UNL1       -0.3802
     18 H          57.8066   91.3204    5.7462 H       1  UNL1        0.2105
     19 C          63.2521   85.5656   12.6195 C.3     1  UNL1        0.1518
     20 C          62.4574   81.7098   13.1211 C.ar    1  UNL1        0.2234
     21 N          62.9473   81.1477   11.8195 N.ar    1  UNL1       -0.1896
     22 C          63.5389   82.0583   10.7846 C.ar    1  UNL1        0.2012
     23 N          63.6405   83.5309   11.0512 N.ar    1  UNL1       -0.2265
     24 C          63.1505   84.0929   12.3528 C.ar    1  UNL1        0.0841
     25 C          62.5590   83.1824   13.3877 C.ar    1  UNL1        0.0468
     26 C          62.0691   83.7445   14.6892 C.3     1  UNL1        0.0372
     27 C          60.3900   80.5313   14.1636 C.3     1  UNL1        0.2542
     28 O          61.8659   80.7992   14.1559 O.3     1  UNL1       -0.4563
@<TRIPOS>BOND
     1    27    28    1
     2    28    20    1
     3    20    21   ar
     4    21    22   ar
     5    22    23   ar
     6    23    24   ar
     7    24    19    1
     8    19     1    1
     9     1     2   ar
    10     2     3   ar
    11     3    11    1
    12    11    12    2
    13    11    13   am
    14    13    15    1
    15    15    16    1
    16    16    17    1
    17     3     4   ar
    18     4     5   ar
    19     5     6   ar
    20     6     7   ar
    21     7     8    1
    22     7     9   ar
    23     9    10   ar
    24    24    25   ar
    25    25    26    1
    26    25    20   ar
    27    10     1   ar
    28    10     4   ar
    29    13    14    1
    30    17    18    1
@<TRIPOS>MOLECULE
*****
 28 30 0 0 0
SMALL
GASTEIGER

@<TRIPOS>ATOM
      1 N          61.5762   89.3281   11.2087 N.ar    1  UNL1       -0.3190
      2 C          60.7695   89.8225   10.0448 C.ar    1  UNL1        0.0823
      3 C          60.5010   88.6576    9.1388 C.ar    1  UNL1        0.0895
      4 C          61.1417   87.4433    9.7427 C.ar    1  UNL1        0.1028
      5 N          61.2060   86.0137    9.2931 N.ar    1  UNL1       -0.2425
      6 C          61.9347   84.9986   10.1227 C.ar    1  UNL1        0.0946
      7 C          62.5992   85.4130   11.4021 C.ar    1  UNL1       -0.0013
      8 C          63.3280   84.3978   12.2317 C.3     1  UNL1        0.0327
      9 C          62.5350   86.8425   11.8517 C.ar    1  UNL1        0.0160
     10 C          61.8063   87.8577   11.0221 C.ar    1  UNL1        0.0780
     11 C          59.7275   88.6996    7.8542 C.2     1  UNL1        0.2489
     12 O          58.9515   87.4968    7.4063 O.2     1  UNL1       -0.2700
     13 N          59.7301   89.9447    7.0176 N.am    1  UNL1       -0.2984
     14 H          60.2394   90.7343    7.3116 H       1  UNL1        0.1498
     15 C          58.9566   89.9868    5.7331 C.3     1  UNL1        0.1215
     16 C          57.9900   91.1046    5.4760 C.3     1  UNL1        0.1583
     17 O          56.5526   90.7988    5.1753 O.3     1  UNL1       -0.3802
     18 H          56.4918   90.3331    4.3265 H       1  UNL1        0.2105
     19 C          62.0667   90.1584   12.3577 C.3     1  UNL1        0.1518
     20 C          65.6340   91.6052   13.3228 C.ar    1  UNL1        0.2234
     21 N          66.0040   92.3162   12.0549 N.ar    1  UNL1       -0.1896
     22 C          65.0616   92.3079   10.8879 C.ar    1  UNL1        0.2012
     23 N          63.7492   91.5886   10.9888 N.ar    1  UNL1       -0.2265
     24 C          63.3792   90.8777   12.2567 C.ar    1  UNL1        0.0841
     25 C          64.3216   90.8860   13.4237 C.ar    1  UNL1        0.0468
     26 C          63.9515   90.1750   14.6916 C.3     1  UNL1        0.0372
     27 C          66.4459   92.6649   15.5517 C.3     1  UNL1        0.2542
     28 O          66.5764   91.6135   14.4898 O.3     1  UNL1       -0.4563
@<TRIPOS>BOND
     1    27    28    1
     2    28    20    1
     3    20    21   ar
     4    21    22   ar
     5    22    23   ar
     6    23    24   ar
     7    24    19    1
     8    19     1    1
     9     1     2   ar
    10     2     3   ar
    11     3    11    1
    12    11    12    2
    13    11    13   am
    14    13    15    1
    15    15    16    1
    16    16    17    1
    17     3     4   ar
    18     4     5   ar
    19     5     6   ar
    20     6     7   ar
    21     7     8    1
    22     7     9   ar
    23     9    10   ar
    24    24    25   ar
    25    25    26    1
    26    25    20   ar
    27    10     1   ar
    28    10     4   ar
    29    13    14    1
    30    17    18    1
@<TRIPOS>MOLECULE
*****
 28 30 0 0 0
SMALL
GASTEIGER

@<TRIPOS>ATOM
      1 N          62.5339   86.5665   11.4868 N.ar    1  UNL1       -0.3190
      2 C          63.3145   87.4522   12.4122 C.ar    1  UNL1        0.0823
      3 C          62.9766   88.8766   12.0852 C.ar    1  UNL1        0.0895
      4 C          61.9872   88.8713   10.9578 C.ar    1  UNL1        0.1028
      5 N          61.3001   89.9820   10.2201 N.ar    1  UNL1       -0.2425
      6 C          60.3394   89.6649    9.1127 C.ar    1  UNL1        0.0946
      7 C          60.0657   88.2372    8.7429 C.ar    1  UNL1       -0.0013
      8 C          59.1049   87.9202    7.6354 C.3     1  UNL1        0.0327
      9 C          60.7529   87.1265    9.4805 C.ar    1  UNL1        0.0160
     10 C          61.7136   87.4435   10.5880 C.ar    1  UNL1        0.0780
     11 C          63.5308   90.0928   12.7660 C.2     1  UNL1        0.2489
     12 O          63.8225   91.3304   11.9703 O.2     1  UNL1       -0.2700
     13 N          63.7934   90.0715   14.2428 N.am    1  UNL1       -0.2984
     14 H          63.6020   89.2592   14.7651 H       1  UNL1        0.1498
     15 C          64.3476   91.2878   14.9237 C.3     1  UNL1        0.1215
     16 C          64.1102   91.5002   16.3894 C.3     1  UNL1        0.1583
     17 O          64.4887   92.8031   17.0293 O.3     1  UNL1       -0.3802
     18 H          65.4527   92.9077   17.0041 H       1  UNL1        0.2105
     19 C          62.5677   85.0671   11.4643 C.3     1  UNL1        0.1518
     20 C          63.0544   82.0624   14.0110 C.ar    1  UNL1        0.2234
     21 N          62.8491   82.7646   15.3204 N.ar    1  UNL1       -0.1896
     22 C          62.5499   84.2343   15.3445 C.ar    1  UNL1        0.2012
     23 N          62.4561   85.0018   14.0592 N.ar    1  UNL1       -0.2265
     24 C          62.6615   84.2996   12.7498 C.ar    1  UNL1        0.0841
     25 C          62.9606   82.8299   12.7257 C.ar    1  UNL1        0.0468
     26 C          63.1660   82.1278   11.4161 C.3     1  UNL1        0.0372
     27 C          62.3125   79.6232   13.5114 C.3     1  UNL1        0.2542
     28 O          63.3536   80.5927   13.9869 O.3     1  UNL1       -0.4563
@<TRIPOS>BOND
     1    27    28    1
     2    28    20    1
     3    20    21   ar
     4    21    22   ar
     5    22    23   ar
     6    23    24   ar
     7    24    19    1
     8    19     1    1
     9     1     2   ar
    10     2     3   ar
    11     3    11    1
    12    11    12    2
    13    11    13   am
    14    13    15    1
    15    15    16    1
    16    16    17    1
    17     3     4   ar
    18     4     5   ar
    19     5     6   ar
    20     6     7   ar
    21     7     8    1
    22     7     9   ar
    23     9    10   ar
    24    24    25   ar
    25    25    26    1
    26    25    20   ar
    27    10     1   ar
    28    10     4   ar
    29    13    14    1
    30    17    18    1
