@<TRIPOS>MOLECULE
*****
 25 27 0 0 0
SMALL
GASTEIGER

@<TRIPOS>ATOM
      1 C          64.5307   92.0045   11.1207 C.3     1  UNL1        0.0356
      2 C          64.2312   91.3249   12.4239 C.ar    1  UNL1        0.0307
      3 C          65.2295   91.3746   13.5424 C.ar    1  UNL1        0.1378
      4 C          64.9301   90.6951   14.8457 C.ar    1  UNL1        0.0572
      5 C          63.6324   89.9657   15.0305 C.ar    1  UNL1        0.1017
      6 N          62.6341   89.9160   13.9120 N.ar    1  UNL1       -0.2431
      7 C          62.9336   90.5956   12.6087 C.ar    1  UNL1        0.1175
      8 O          66.5272   92.1039   13.3577 O.3     1  UNL1       -0.4668
      9 C          66.9734   93.1106   14.3762 C.3     1  UNL1        0.3081
     10 C          67.9260   92.7070   15.4624 C.3     1  UNL1        0.4380
     11 F          68.8785   92.3033   16.5485 F       1  UNL1       -0.1663
     12 F          66.9158   93.1066   16.4967 F       1  UNL1       -0.1663
     13 F          68.9361   92.3073   14.4280 F       1  UNL1       -0.1663
     14 C          61.9353   90.5459   11.4902 C.3     1  UNL1        0.3094
     15 S          60.9544   89.4140   11.4101 S.O     1  UNL1        0.0985
     16 O          59.7805   89.3715   12.3429 O.co2   1  UNL1       -0.6751
     17 C          61.1474   88.3245   10.3973 C.2     1  UNL1        0.3556
     18 N          60.1221   87.8433    9.4138 N.2     1  UNL1       -0.1811
     19 C          60.7405   86.7464    8.5988 C.2     1  UNL1        0.1012
     20 C          60.2039   85.9013    7.4818 C.2     1  UNL1        0.0202
     21 C          61.0747   84.8594    6.8446 C.2     1  UNL1       -0.0026
     22 C          62.4822   84.6626    7.3244 C.2     1  UNL1       -0.0197
     23 C          63.0189   85.5077    8.4414 C.3     1  UNL1        0.0735
     24 C          62.1480   86.5496    9.0786 C.2     1  UNL1        0.0869
     25 N          62.3994   87.5249   10.1901 N.2     1  UNL1       -0.1848
@<TRIPOS>UNITY_ATOM_ATTR
15 1
charge 1
16 1
charge -1
@<TRIPOS>BOND
     1     1     2    1
     2     2     3   ar
     3     3     8    1
     4     8     9    1
     5     9    10    1
     6    10    11    1
     7    10    12    1
     8    10    13    1
     9     3     4   ar
    10     4     5   ar
    11     5     6   ar
    12     6     7   ar
    13     7    14    1
    14    14    15    1
    15    15    16    2
    16    15    17    1
    17    17    18    2
    18    18    19    1
    19    19    20    2
    20    20    21    1
    21    21    22    2
    22    22    23    1
    23    23    24    1
    24    24    25    2
    25     7     2   ar
    26    25    17    1
    27    24    19    1
@<TRIPOS>MOLECULE
*****
 25 27 0 0 0
SMALL
GASTEIGER

@<TRIPOS>ATOM
      1 C          63.5739   91.7023   10.4481 C.3     1  UNL1        0.0356
      2 C          63.6999   90.8904   11.7030 C.ar    1  UNL1        0.0307
      3 C          64.4851   91.4226   12.8650 C.ar    1  UNL1        0.1378
      4 C          64.6111   90.6107   14.1199 C.ar    1  UNL1        0.0572
      5 C          63.9520   89.2664   14.2128 C.ar    1  UNL1        0.1017
      6 N          63.1669   88.7341   13.0508 N.ar    1  UNL1       -0.2431
      7 C          63.0408   89.5462   11.7958 C.ar    1  UNL1        0.1175
      8 O          65.1441   92.7668   12.7721 O.3     1  UNL1       -0.4668
      9 C          66.4822   92.9919   13.4116 C.3     1  UNL1        0.3081
     10 C          67.6536   92.1411   13.0192 C.3     1  UNL1        0.4380
     11 F          68.8250   91.2903   12.6269 F       1  UNL1       -0.1663
     12 F          67.9379   91.8653   14.4660 F       1  UNL1       -0.1663
     13 F          67.3693   92.4168   11.5725 F       1  UNL1       -0.1663
     14 C          62.2557   89.0139   10.6338 C.3     1  UNL1        0.3094
     15 S          61.3565   87.8273   10.8167 S.O     1  UNL1        0.0985
     16 O          59.8679   88.0104   10.8367 O.co2   1  UNL1       -0.6751
     17 C          61.9460   86.4577   10.9797 C.2     1  UNL1        0.3556
     18 N          62.6526   85.6697    9.9168 N.2     1  UNL1       -0.1811
     19 C          63.0756   84.3605   10.5144 C.2     1  UNL1        0.1012
     20 C          63.8087   83.1849    9.9394 C.2     1  UNL1        0.0202
     21 C          64.0965   81.9882   10.7966 C.2     1  UNL1       -0.0026
     22 C          63.6514   81.9671   12.2289 C.2     1  UNL1       -0.0197
     23 C          62.9183   83.1426   12.8039 C.3     1  UNL1        0.0735
     24 C          62.6305   84.3393   11.9466 C.2     1  UNL1        0.0869
     25 N          61.9323   85.6354   12.2342 N.2     1  UNL1       -0.1848
@<TRIPOS>UNITY_ATOM_ATTR
15 1
charge 1
16 1
charge -1
@<TRIPOS>BOND
     1     1     2    1
     2     2     3   ar
     3     3     8    1
     4     8     9    1
     5     9    10    1
     6    10    11    1
     7    10    12    1
     8    10    13    1
     9     3     4   ar
    10     4     5   ar
    11     5     6   ar
    12     6     7   ar
    13     7    14    1
    14    14    15    1
    15    15    16    2
    16    15    17    1
    17    17    18    2
    18    18    19    1
    19    19    20    2
    20    20    21    1
    21    21    22    2
    22    22    23    1
    23    23    24    1
    24    24    25    2
    25     7     2   ar
    26    25    17    1
    27    24    19    1
@<TRIPOS>MOLECULE
*****
 25 27 0 0 0
SMALL
GASTEIGER

@<TRIPOS>ATOM
      1 C          64.1758   88.5946   14.1862 C.3     1  UNL1        0.0356
      2 C          63.7173   89.3144   12.9527 C.ar    1  UNL1        0.0307
      3 C          62.9555   88.5755   11.8926 C.ar    1  UNL1        0.1378
      4 C          62.4970   89.2953   10.6591 C.ar    1  UNL1        0.0572
      5 C          62.8004   90.7541   10.4856 C.ar    1  UNL1        0.1017
      6 N          63.5621   91.4930   11.5456 N.ar    1  UNL1       -0.2431
      7 C          64.0206   90.7731   12.7792 C.ar    1  UNL1        0.1175
      8 O          62.6522   87.1168   12.0661 O.3     1  UNL1       -0.4668
      9 C          61.8676   86.3841   11.0184 C.3     1  UNL1        0.3081
     10 C          62.5562   85.4066   10.1126 C.3     1  UNL1        0.4380
     11 F          63.2448   84.4292    9.2068 F       1  UNL1       -0.1663
     12 F          62.6363   86.4546    9.0425 F       1  UNL1       -0.1663
     13 F          62.4762   84.3586   11.1827 F       1  UNL1       -0.1663
     14 C          64.7824   91.5120   13.8393 C.3     1  UNL1        0.3094
     15 S          66.1762   91.9928   13.5637 S.O     1  UNL1        0.0985
     16 O          67.3217   91.4841   14.3878 O.co2   1  UNL1       -0.6751
     17 C          66.4247   92.9823   12.4641 C.2     1  UNL1        0.3556
     18 N          67.0623   92.6863   11.1390 N.2     1  UNL1       -0.1811
     19 C          67.1108   93.9626   10.3525 C.2     1  UNL1        0.1012
     20 C          67.6297   94.2771    8.9807 C.2     1  UNL1        0.0202
     21 C          67.5410   95.6764    8.4479 C.2     1  UNL1       -0.0026
     22 C          66.9334   96.7613    9.2868 C.2     1  UNL1       -0.0197
     23 C          66.4144   96.4468   10.6586 C.3     1  UNL1        0.0735
     24 C          66.5031   95.0474   11.1914 C.2     1  UNL1        0.0869
     25 N          66.0791   94.4416   12.4964 N.2     1  UNL1       -0.1848
@<TRIPOS>UNITY_ATOM_ATTR
15 1
charge 1
16 1
charge -1
@<TRIPOS>BOND
     1     1     2    1
     2     2     3   ar
     3     3     8    1
     4     8     9    1
     5     9    10    1
     6    10    11    1
     7    10    12    1
     8    10    13    1
     9     3     4   ar
    10     4     5   ar
    11     5     6   ar
    12     6     7   ar
    13     7    14    1
    14    14    15    1
    15    15    16    2
    16    15    17    1
    17    17    18    2
    18    18    19    1
    19    19    20    2
    20    20    21    1
    21    21    22    2
    22    22    23    1
    23    23    24    1
    24    24    25    2
    25     7     2   ar
    26    25    17    1
    27    24    19    1
@<TRIPOS>MOLECULE
*****
 25 27 0 0 0
SMALL
GASTEIGER

@<TRIPOS>ATOM
      1 C          64.5013   92.2839   10.8430 C.3     1  UNL1        0.0356
      2 C          65.2057   92.0533   12.1470 C.ar    1  UNL1        0.0307
      3 C          66.5438   92.6829   12.3982 C.ar    1  UNL1        0.1378
      4 C          67.2482   92.4524   13.7023 C.ar    1  UNL1        0.0572
      5 C          66.6145   91.5923   14.7553 C.ar    1  UNL1        0.1017
      6 N          65.2764   90.9627   14.5041 N.ar    1  UNL1       -0.2431
      7 C          64.5720   91.1933   13.1999 C.ar    1  UNL1        0.1175
      8 O          67.1775   93.5429   11.3453 O.3     1  UNL1       -0.4668
      9 C          67.0794   93.1539    9.9000 C.3     1  UNL1        0.3081
     10 C          68.2842   92.6197    9.1836 C.3     1  UNL1        0.4380
     11 F          69.4890   92.0856    8.4672 F       1  UNL1       -0.1663
     12 F          68.0695   93.6140    8.0812 F       1  UNL1       -0.1663
     13 F          68.4989   91.6255   10.2859 F       1  UNL1       -0.1663
     14 C          63.2338   90.5637   12.9487 C.3     1  UNL1        0.3094
     15 S          63.1444   89.1101   12.5900 S.O     1  UNL1        0.0985
     16 O          63.8968   88.0915   13.3939 O.co2   1  UNL1       -0.6751
     17 C          62.3025   88.6750   11.4272 C.2     1  UNL1        0.3556
     18 N          61.5243   89.5769   10.5157 N.2     1  UNL1       -0.1811
     19 C          60.8318   88.7209    9.4970 C.2     1  UNL1        0.1012
     20 C          59.9277   89.0596    8.3491 C.2     1  UNL1        0.0202
     21 C          59.3737   87.9673    7.4831 C.2     1  UNL1       -0.0026
     22 C          59.7239   86.5363    7.7651 C.2     1  UNL1       -0.0197
     23 C          60.6281   86.1976    8.9130 C.3     1  UNL1        0.0735
     24 C          61.1820   87.2899    9.7789 C.2     1  UNL1        0.0869
     25 N          62.0909   87.2615   10.9719 N.2     1  UNL1       -0.1848
@<TRIPOS>UNITY_ATOM_ATTR
15 1
charge 1
16 1
charge -1
@<TRIPOS>BOND
     1     1     2    1
     2     2     3   ar
     3     3     8    1
     4     8     9    1
     5     9    10    1
     6    10    11    1
     7    10    12    1
     8    10    13    1
     9     3     4   ar
    10     4     5   ar
    11     5     6   ar
    12     6     7   ar
    13     7    14    1
    14    14    15    1
    15    15    16    2
    16    15    17    1
    17    17    18    2
    18    18    19    1
    19    19    20    2
    20    20    21    1
    21    21    22    2
    22    22    23    1
    23    23    24    1
    24    24    25    2
    25     7     2   ar
    26    25    17    1
    27    24    19    1
@<TRIPOS>MOLECULE
*****
 25 27 0 0 0
SMALL
GASTEIGER

@<TRIPOS>ATOM
      1 C          62.3704   84.8709   13.5673 C.3     1  UNL1        0.0356
      2 C          62.8438   84.5246   12.1868 C.ar    1  UNL1        0.0307
      3 C          63.8273   83.4095   11.9888 C.ar    1  UNL1        0.1378
      4 C          64.3006   83.0632   10.6082 C.ar    1  UNL1        0.0572
      5 C          63.7905   83.8322    9.4255 C.ar    1  UNL1        0.1017
      6 N          62.8071   84.9474    9.6235 N.ar    1  UNL1       -0.2431
      7 C          62.3337   85.2936   11.0042 C.ar    1  UNL1        0.1175
      8 O          64.3374   82.6406   13.1713 O.3     1  UNL1       -0.4668
      9 C          63.8482   81.2458   13.4267 C.3     1  UNL1        0.3081
     10 C          62.3827   80.9880   13.6168 C.3     1  UNL1        0.4380
     11 F          60.9173   80.7302   13.8069 F       1  UNL1       -0.1663
     12 F          62.3931   80.0601   12.4383 F       1  UNL1       -0.1663
     13 F          62.3723   81.9158   14.7953 F       1  UNL1       -0.1663
     14 C          61.3502   86.4087   11.2022 C.3     1  UNL1        0.3094
     15 S          61.6626   87.7839   10.6910 S.O     1  UNL1        0.0985
     16 O          61.0850   88.2483    9.3869 O.co2   1  UNL1       -0.6751
     17 C          62.5527   88.6945   11.4837 C.2     1  UNL1        0.3556
     18 N          62.9996   90.0666   11.0742 N.2     1  UNL1       -0.1811
     19 C          63.8752   90.6130   12.1626 C.2     1  UNL1        0.1012
     20 C          64.5989   91.9188   12.3080 C.2     1  UNL1        0.0202
     21 C          65.4169   92.1903   13.5356 C.2     1  UNL1       -0.0026
     22 C          65.5112   91.1560   14.6179 C.2     1  UNL1       -0.0197
     23 C          64.7875   89.8502   14.4725 C.3     1  UNL1        0.0735
     24 C          63.9696   89.5787   13.2448 C.2     1  UNL1        0.0869
     25 N          63.1522   88.3930   12.8252 N.2     1  UNL1       -0.1848
@<TRIPOS>UNITY_ATOM_ATTR
15 1
charge 1
16 1
charge -1
@<TRIPOS>BOND
     1     1     2    1
     2     2     3   ar
     3     3     8    1
     4     8     9    1
     5     9    10    1
     6    10    11    1
     7    10    12    1
     8    10    13    1
     9     3     4   ar
    10     4     5   ar
    11     5     6   ar
    12     6     7   ar
    13     7    14    1
    14    14    15    1
    15    15    16    2
    16    15    17    1
    17    17    18    2
    18    18    19    1
    19    19    20    2
    20    20    21    1
    21    21    22    2
    22    22    23    1
    23    23    24    1
    24    24    25    2
    25     7     2   ar
    26    25    17    1
    27    24    19    1
@<TRIPOS>MOLECULE
*****
 25 27 0 0 0
SMALL
GASTEIGER

@<TRIPOS>ATOM
      1 C          62.4637   84.9425   13.4955 C.3     1  UNL1        0.0356
      2 C          62.8914   84.5824   12.1036 C.ar    1  UNL1        0.0307
      3 C          63.8899   83.4844   11.8862 C.ar    1  UNL1        0.1378
      4 C          64.3177   83.1243   10.4944 C.ar    1  UNL1        0.0572
      5 C          63.7469   83.8623    9.3198 C.ar    1  UNL1        0.1017
      6 N          62.7483   84.9604    9.5371 N.ar    1  UNL1       -0.2431
      7 C          62.3206   85.3204   10.9291 C.ar    1  UNL1        0.1175
      8 O          64.4607   82.7464   13.0608 O.3     1  UNL1       -0.4668
      9 C          63.9202   81.3979   13.4340 C.3     1  UNL1        0.3081
     10 C          62.4383   81.1687   13.4741 C.3     1  UNL1        0.4380
     11 F          60.9565   80.9396   13.5142 F       1  UNL1       -0.1663
     12 F          62.3554   81.9306   14.7634 F       1  UNL1       -0.1663
     13 F          62.5212   80.4068   12.1847 F       1  UNL1       -0.1663
     14 C          61.3221   86.4185   11.1464 C.3     1  UNL1        0.3094
     15 S          61.6156   87.8064   10.6591 S.O     1  UNL1        0.0985
     16 O          61.0103   88.2945    9.3764 O.co2   1  UNL1       -0.6751
     17 C          62.5144   88.7062   11.4544 C.2     1  UNL1        0.3556
     18 N          63.1092   88.3960   12.7961 N.2     1  UNL1       -0.1811
     19 C          63.9386   89.5722   13.2186 C.2     1  UNL1        0.1012
     20 C          64.7580   89.8329   14.4476 C.2     1  UNL1        0.0202
     21 C          65.4953   91.1307   14.5961 C.2     1  UNL1       -0.0026
     22 C          65.4131   92.1679   13.5156 C.2     1  UNL1       -0.0197
     23 C          64.5936   91.9072   12.2866 C.3     1  UNL1        0.0735
     24 C          63.8564   90.6094   12.1381 C.2     1  UNL1        0.0869
     25 N          62.9762   90.0741   11.0478 N.2     1  UNL1       -0.1848
@<TRIPOS>UNITY_ATOM_ATTR
15 1
charge 1
16 1
charge -1
@<TRIPOS>BOND
     1     1     2    1
     2     2     3   ar
     3     3     8    1
     4     8     9    1
     5     9    10    1
     6    10    11    1
     7    10    12    1
     8    10    13    1
     9     3     4   ar
    10     4     5   ar
    11     5     6   ar
    12     6     7   ar
    13     7    14    1
    14    14    15    1
    15    15    16    2
    16    15    17    1
    17    17    18    2
    18    18    19    1
    19    19    20    2
    20    20    21    1
    21    21    22    2
    22    22    23    1
    23    23    24    1
    24    24    25    2
    25     7     2   ar
    26    25    17    1
    27    24    19    1
@<TRIPOS>MOLECULE
*****
 25 27 0 0 0
SMALL
GASTEIGER

@<TRIPOS>ATOM
      1 C          64.6187   85.8162   13.9326 C.3     1  UNL1        0.0356
      2 C          63.9362   86.3568   15.1540 C.ar    1  UNL1        0.0307
      3 C          63.2963   85.4177   16.1331 C.ar    1  UNL1        0.1378
      4 C          62.6138   85.9582   17.3545 C.ar    1  UNL1        0.0572
      5 C          62.5711   87.4380   17.5969 C.ar    1  UNL1        0.1017
      6 N          63.2110   88.3771   16.6178 N.ar    1  UNL1       -0.2431
      7 C          63.8936   87.8364   15.3963 C.ar    1  UNL1        0.1175
      8 O          63.3389   83.9380   15.8908 O.3     1  UNL1       -0.4668
      9 C          62.3355   83.2984   14.9776 C.3     1  UNL1        0.3081
     10 C          62.6670   82.0106   14.2834 C.3     1  UNL1        0.4380
     11 F          62.9986   80.7230   13.5892 F       1  UNL1       -0.1663
     12 F          64.0640   82.5005   14.0420 F       1  UNL1       -0.1663
     13 F          61.2700   81.5208   14.5248 F       1  UNL1       -0.1663
     14 C          64.5335   88.7755   14.4172 C.3     1  UNL1        0.3094
     15 S          63.6876   89.7420   13.6424 S.O     1  UNL1        0.0985
     16 O          63.6479   91.1883   14.0379 O.co2   1  UNL1       -0.6751
     17 C          62.8815   89.2621   12.4720 C.2     1  UNL1        0.3556
     18 N          61.9862   90.1051   11.6130 N.2     1  UNL1       -0.1811
     19 C          61.3805   89.2190   10.5652 C.2     1  UNL1        0.1012
     20 C          60.4219   89.4987    9.4459 C.2     1  UNL1        0.0202
     21 C          59.9843   88.3878    8.5380 C.2     1  UNL1       -0.0026
     22 C          60.5053   86.9972    8.7493 C.2     1  UNL1       -0.0197
     23 C          61.4639   86.7174    9.8686 C.3     1  UNL1        0.0735
     24 C          61.9015   87.8283   10.7765 C.2     1  UNL1        0.0869
     25 N          62.8291   87.8550   11.9550 N.2     1  UNL1       -0.1848
@<TRIPOS>UNITY_ATOM_ATTR
15 1
charge 1
16 1
charge -1
@<TRIPOS>BOND
     1     1     2    1
     2     2     3   ar
     3     3     8    1
     4     8     9    1
     5     9    10    1
     6    10    11    1
     7    10    12    1
     8    10    13    1
     9     3     4   ar
    10     4     5   ar
    11     5     6   ar
    12     6     7   ar
    13     7    14    1
    14    14    15    1
    15    15    16    2
    16    15    17    1
    17    17    18    2
    18    18    19    1
    19    19    20    2
    20    20    21    1
    21    21    22    2
    22    22    23    1
    23    23    24    1
    24    24    25    2
    25     7     2   ar
    26    25    17    1
    27    24    19    1
@<TRIPOS>MOLECULE
*****
 25 27 0 0 0
SMALL
GASTEIGER

@<TRIPOS>ATOM
      1 C          62.3901   84.7688   10.7350 C.3     1  UNL1        0.0356
      2 C          63.0259   85.2593   12.0019 C.ar    1  UNL1        0.0307
      3 C          63.6291   84.2810   12.9658 C.ar    1  UNL1        0.1378
      4 C          64.2650   84.7714   14.2327 C.ar    1  UNL1        0.0572
      5 C          64.2977   86.2402   14.5357 C.ar    1  UNL1        0.1017
      6 N          63.6945   87.2184   13.5718 N.ar    1  UNL1       -0.2431
      7 C          63.0586   86.7279   12.3048 C.ar    1  UNL1        0.1175
      8 O          63.5965   82.8123   12.6628 O.3     1  UNL1       -0.4668
      9 C          63.3262   81.8260   13.7601 C.3     1  UNL1        0.3081
     10 C          61.9344   81.3117   13.9804 C.3     1  UNL1        0.4380
     11 F          60.5427   80.7975   14.2006 F       1  UNL1       -0.1663
     12 F          62.2427   80.1140   13.1316 F       1  UNL1       -0.1663
     13 F          61.6261   82.5094   14.8291 F       1  UNL1       -0.1663
     14 C          62.4554   87.7062   11.3409 C.3     1  UNL1        0.3094
     15 S          62.0588   89.0744   11.8105 S.O     1  UNL1        0.0985
     16 O          60.6396   89.3475   12.2118 O.co2   1  UNL1       -0.6751
     17 C          63.0815   90.1696   11.8789 C.2     1  UNL1        0.3556
     18 N          63.5313   91.0287   10.7345 N.2     1  UNL1       -0.1811
     19 C          64.5618   91.9880   11.2520 C.2     1  UNL1        0.1012
     20 C          65.3539   93.0695   10.5791 C.2     1  UNL1        0.0202
     21 C          66.3331   93.8848   11.3704 C.2     1  UNL1       -0.0026
     22 C          66.5202   93.6187   12.8347 C.2     1  UNL1       -0.0197
     23 C          65.7281   92.5372   13.5077 C.3     1  UNL1        0.0735
     24 C          64.7489   91.7219   12.7163 C.2     1  UNL1        0.0869
     25 N          63.8341   90.5980   13.1037 N.2     1  UNL1       -0.1848
@<TRIPOS>UNITY_ATOM_ATTR
15 1
charge 1
16 1
charge -1
@<TRIPOS>BOND
     1     1     2    1
     2     2     3   ar
     3     3     8    1
     4     8     9    1
     5     9    10    1
     6    10    11    1
     7    10    12    1
     8    10    13    1
     9     3     4   ar
    10     4     5   ar
    11     5     6   ar
    12     6     7   ar
    13     7    14    1
    14    14    15    1
    15    15    16    2
    16    15    17    1
    17    17    18    2
    18    18    19    1
    19    19    20    2
    20    20    21    1
    21    21    22    2
    22    22    23    1
    23    23    24    1
    24    24    25    2
    25     7     2   ar
    26    25    17    1
    27    24    19    1
@<TRIPOS>MOLECULE
*****
 25 27 0 0 0
SMALL
GASTEIGER

@<TRIPOS>ATOM
      1 C          62.3142   85.3007   12.5525 C.3     1  UNL1        0.0356
      2 C          62.3566   85.4026   11.0566 C.ar    1  UNL1        0.0307
      3 C          63.1883   84.4394   10.2625 C.ar    1  UNL1        0.1378
      4 C          63.2307   84.5413    8.7666 C.ar    1  UNL1        0.0572
      5 C          62.4414   85.6064    8.0647 C.ar    1  UNL1        0.1017
      6 N          61.6097   86.5696    8.8588 N.ar    1  UNL1       -0.2431
      7 C          61.5673   86.4676   10.3548 C.ar    1  UNL1        0.1175
      8 O          63.9776   83.3743   10.9644 O.3     1  UNL1       -0.4668
      9 C          63.8751   81.9466   10.5159 C.3     1  UNL1        0.3081
     10 C          63.2084   80.9304   11.3950 C.3     1  UNL1        0.4380
     11 F          62.5416   79.9142   12.2741 F       1  UNL1       -0.1663
     12 F          63.7167   81.6480   12.6101 F       1  UNL1       -0.1663
     13 F          62.7000   80.2127   10.1800 F       1  UNL1       -0.1663
     14 C          60.7356   87.4308   11.1489 C.3     1  UNL1        0.3094
     15 S          60.9494   88.9078   10.9981 S.O     1  UNL1        0.0985
     16 O          60.0083   89.7199   10.1585 O.co2   1  UNL1       -0.6751
     17 C          62.1042   89.5726   11.6868 C.2     1  UNL1        0.3556
     18 N          62.8031   90.8194   11.2317 N.2     1  UNL1       -0.1811
     19 C          63.8938   91.1248   12.2151 C.2     1  UNL1        0.1012
     20 C          64.9062   92.2296   12.2801 C.2     1  UNL1        0.0202
     21 C          65.8939   92.2763   13.4079 C.2     1  UNL1       -0.0026
     22 C          65.8692   91.2182   14.4709 C.2     1  UNL1       -0.0197
     23 C          64.8567   90.1134   14.4059 C.3     1  UNL1        0.0735
     24 C          63.8690   90.0667   13.2780 C.2     1  UNL1        0.0869
     25 N          62.7630   89.1074   12.9515 N.2     1  UNL1       -0.1848
@<TRIPOS>UNITY_ATOM_ATTR
15 1
charge 1
16 1
charge -1
@<TRIPOS>BOND
     1     1     2    1
     2     2     3   ar
     3     3     8    1
     4     8     9    1
     5     9    10    1
     6    10    11    1
     7    10    12    1
     8    10    13    1
     9     3     4   ar
    10     4     5   ar
    11     5     6   ar
    12     6     7   ar
    13     7    14    1
    14    14    15    1
    15    15    16    2
    16    15    17    1
    17    17    18    2
    18    18    19    1
    19    19    20    2
    20    20    21    1
    21    21    22    2
    22    22    23    1
    23    23    24    1
    24    24    25    2
    25     7     2   ar
    26    25    17    1
    27    24    19    1
