@<TRIPOS>MOLECULE
*****
 28 32 0 0 0
SMALL
GASTEIGER

@<TRIPOS>ATOM
      1 C          60.9095   87.4117    9.0535 C.ar    1  UNL1        0.0645
      2 C          59.9836   87.0112    7.9434 C.ar    1  UNL1        0.0901
      3 CL         59.8256   85.5634    7.5841 Cl      1  UNL1       -0.0793
      4 C          59.2157   88.0584    7.1926 C.ar    1  UNL1        0.1115
      5 N          59.3736   89.5061    7.5519 N.ar    1  UNL1       -0.2412
      6 C          60.2996   89.9066    8.6620 C.ar    1  UNL1        0.1032
      7 C          61.0674   88.8594    9.4128 C.ar    1  UNL1        0.0678
      8 O          62.1538   84.6342   13.7327 O.2     1  UNL1       -0.2751
      9 C          63.0793   83.9561   12.7665 C.2     1  UNL1        0.2217
     10 N          64.0332   82.8450   13.0911 N.am    1  UNL1       -0.3043
     11 C          64.7568   82.4722   11.8311 C.3     1  UNL1        0.0899
     12 C          64.2500   83.3531   10.7277 C.3     1  UNL1        0.0300
     13 C          63.2133   84.2701   11.3058 C.3     1  UNL1        0.0737
     14 C          63.4559   84.4709    9.8392 C.3     1  UNL1        0.0301
     15 C          62.6880   85.5181    9.0885 C.3     1  UNL1        0.0913
     16 N          61.6774   86.3645    9.8043 N.pl3   1  UNL1       -0.3067
     17 C          61.4347   86.1637   11.2708 C.3     1  UNL1        0.0913
     18 C          62.2027   85.1165   12.0215 C.3     1  UNL1        0.0301
     19 H          64.1618   82.4327   13.9759 H       1  UNL1        0.1494
     20 C          61.9934   89.2599   10.5229 C.ar    1  UNL1        0.1480
     21 C          62.7780   90.5361   10.5994 C.ar    1  UNL1        0.0406
     22 C          63.5667   90.5195   11.8752 C.ar    1  UNL1        0.0376
     23 C          64.5172   91.5095   12.4806 C.ar    1  UNL1        0.0031
     24 C          65.1704   91.2132   13.7979 C.ar    1  UNL1        0.0002
     25 C          64.8733   89.9268   14.5099 C.ar    1  UNL1        0.0031
     26 C          63.9228   88.9367   13.9045 C.ar    1  UNL1        0.0375
     27 C          63.2696   89.2331   12.5872 C.ar    1  UNL1        0.1453
     28 O          62.2972   88.4547   11.7514 O.2     1  UNL1       -0.4534
@<TRIPOS>BOND
     1     8     9    2
     2     9    10   am
     3    10    11    1
     4    11    12    1
     5    12    13    1
     6    13    14    1
     7    14    15    1
     8    15    16    1
     9    16     1    1
    10     1     2   ar
    11     2     3    1
    12     2     4   ar
    13     4     5   ar
    14     5     6   ar
    15     6     7   ar
    16     7    20    1
    17    20    21   ar
    18    21    22   ar
    19    22    23   ar
    20    23    24   ar
    21    24    25   ar
    22    25    26   ar
    23    26    27   ar
    24    27    28   ar
    25    16    17    1
    26    17    18    1
    27    13     9    1
    28     7     1   ar
    29    28    20   ar
    30    18    13    1
    31    27    22   ar
    32    10    19    1
@<TRIPOS>MOLECULE
*****
 28 32 0 0 0
SMALL
GASTEIGER

@<TRIPOS>ATOM
      1 C          61.0021   87.2865    9.1472 C.ar    1  UNL1        0.0645
      2 C          60.1020   86.8570    8.0268 C.ar    1  UNL1        0.0901
      3 CL         59.9362   85.3993    7.7146 Cl      1  UNL1       -0.0793
      4 C          59.3676   87.8854    7.2186 C.ar    1  UNL1        0.1115
      5 N          59.5333   89.3432    7.5308 N.ar    1  UNL1       -0.2412
      6 C          60.4335   89.7726    8.6512 C.ar    1  UNL1        0.1032
      7 C          61.1679   88.7442    9.4594 C.ar    1  UNL1        0.0678
      8 O          64.7474   83.1773    9.6437 O.2     1  UNL1       -0.2751
      9 C          64.2517   83.2581   11.0571 C.2     1  UNL1        0.2217
     10 N          64.7154   82.4096   12.2039 N.am    1  UNL1       -0.3043
     11 C          63.9556   82.8286   13.4275 C.3     1  UNL1        0.0899
     12 C          63.0223   83.9362   13.0369 C.3     1  UNL1        0.0300
     13 C          63.2053   84.2016   11.5719 C.3     1  UNL1        0.0737
     14 C          62.1801   85.0786   12.2274 C.3     1  UNL1        0.0301
     15 C          61.4457   86.1069   11.4192 C.3     1  UNL1        0.0913
     16 N          61.7366   86.2581    9.9554 N.pl3   1  UNL1       -0.3067
     17 C          62.7618   85.3811    9.2999 C.3     1  UNL1        0.0913
     18 C          63.4961   84.3528   10.1082 C.3     1  UNL1        0.0301
     19 H          65.3985   81.7019   12.1610 H       1  UNL1        0.1494
     20 C          62.0681   89.1736   10.5799 C.ar    1  UNL1        0.1480
     21 C          62.7980   90.4808   10.6728 C.ar    1  UNL1        0.0406
     22 C          63.5774   90.4863   11.9544 C.ar    1  UNL1        0.0376
     23 C          64.4811   91.5101   12.5752 C.ar    1  UNL1        0.0031
     24 C          65.1366   91.2301   13.8950 C.ar    1  UNL1        0.0002
     25 C          64.8884   89.9264   14.5941 C.ar    1  UNL1        0.0031
     26 C          63.9847   88.9026   13.9733 C.ar    1  UNL1        0.0375
     27 C          63.3292   89.1826   12.6535 C.ar    1  UNL1        0.1453
     28 O          62.3964   88.3713   11.8040 O.2     1  UNL1       -0.4534
@<TRIPOS>BOND
     1     8     9    2
     2     9    10   am
     3    10    11    1
     4    11    12    1
     5    12    13    1
     6    13    14    1
     7    14    15    1
     8    15    16    1
     9    16     1    1
    10     1     2   ar
    11     2     3    1
    12     2     4   ar
    13     4     5   ar
    14     5     6   ar
    15     6     7   ar
    16     7    20    1
    17    20    21   ar
    18    21    22   ar
    19    22    23   ar
    20    23    24   ar
    21    24    25   ar
    22    25    26   ar
    23    26    27   ar
    24    27    28   ar
    25    16    17    1
    26    17    18    1
    27    13     9    1
    28     7     1   ar
    29    28    20   ar
    30    18    13    1
    31    27    22   ar
    32    10    19    1
@<TRIPOS>MOLECULE
*****
 28 32 0 0 0
SMALL
GASTEIGER

@<TRIPOS>ATOM
      1 C          63.1645   88.0726   12.5336 C.ar    1  UNL1        0.0645
      2 C          63.4913   89.5279   12.6919 C.ar    1  UNL1        0.0901
      3 CL         63.0028   90.5208   11.6792 Cl      1  UNL1       -0.0793
      4 C          64.3067   89.9905   13.8629 C.ar    1  UNL1        0.1115
      5 N          64.7953   88.9977   14.8756 N.ar    1  UNL1       -0.2412
      6 C          64.4684   87.5422   14.7173 C.ar    1  UNL1        0.1032
      7 C          63.6531   87.0797   13.5463 C.ar    1  UNL1        0.0678
      8 O          62.5596   85.1831    7.7962 O.2     1  UNL1       -0.2751
      9 C          61.1899   85.7820    7.9195 C.2     1  UNL1        0.2217
     10 N          60.0513   85.5831    6.9635 N.am    1  UNL1       -0.3043
     11 C          58.8760   86.3632    7.4737 C.3     1  UNL1        0.0899
     12 C          59.2883   87.0442    8.7451 C.3     1  UNL1        0.0300
     13 C          60.7184   86.6850    9.0206 C.3     1  UNL1        0.0737
     14 C          60.1083   87.5918   10.0480 C.3     1  UNL1        0.0301
     15 C          60.9237   88.0543   11.2189 C.3     1  UNL1        0.0913
     16 N          62.3492   87.6100   11.3626 N.pl3   1  UNL1       -0.3067
     17 C          62.9593   86.7032   10.3352 C.3     1  UNL1        0.0913
     18 C          62.1439   86.2407    9.1643 C.3     1  UNL1        0.0301
     19 H          60.0717   85.0366    6.1449 H       1  UNL1        0.1494
     20 C          63.3262   85.6243   13.3880 C.ar    1  UNL1        0.1480
     21 C          63.7735   84.7374   12.2640 C.ar    1  UNL1        0.0406
     22 C          63.2185   83.3653   12.5071 C.ar    1  UNL1        0.0376
     23 C          63.3306   82.0855   11.7329 C.ar    1  UNL1        0.0031
     24 C          62.6524   80.8445   12.2329 C.ar    1  UNL1        0.0002
     25 C          61.8621   80.8833   13.5071 C.ar    1  UNL1        0.0031
     26 C          61.7499   82.1632   14.2815 C.ar    1  UNL1        0.0375
     27 C          62.4281   83.4041   13.7815 C.ar    1  UNL1        0.1453
     28 O          62.4947   84.8003   14.3258 O.2     1  UNL1       -0.4534
@<TRIPOS>BOND
     1     8     9    2
     2     9    10   am
     3    10    11    1
     4    11    12    1
     5    12    13    1
     6    13    14    1
     7    14    15    1
     8    15    16    1
     9    16     1    1
    10     1     2   ar
    11     2     3    1
    12     2     4   ar
    13     4     5   ar
    14     5     6   ar
    15     6     7   ar
    16     7    20    1
    17    20    21   ar
    18    21    22   ar
    19    22    23   ar
    20    23    24   ar
    21    24    25   ar
    22    25    26   ar
    23    26    27   ar
    24    27    28   ar
    25    16    17    1
    26    17    18    1
    27    13     9    1
    28     7     1   ar
    29    28    20   ar
    30    18    13    1
    31    27    22   ar
    32    10    19    1
@<TRIPOS>MOLECULE
*****
 28 32 0 0 0
SMALL
GASTEIGER

@<TRIPOS>ATOM
      1 C          65.8051   92.2802   14.5385 C.ar    1  UNL1        0.0645
      2 C          66.4638   92.9308   15.7187 C.ar    1  UNL1        0.0901
      3 CL         67.6779   93.7892   15.5211 Cl      1  UNL1       -0.0793
      4 C          65.9083   92.7230   17.0965 C.ar    1  UNL1        0.1115
      5 N          64.6941   91.8647   17.2941 N.ar    1  UNL1       -0.2412
      6 C          64.0355   91.2140   16.1138 C.ar    1  UNL1        0.1032
      7 C          64.5910   91.4218   14.7361 C.ar    1  UNL1        0.0678
      8 O          66.0767   95.0765    9.7151 O.2     1  UNL1       -0.2751
      9 C          67.0858   93.9977    9.4547 C.2     1  UNL1        0.2217
     10 N          67.8862   93.8238    8.1980 N.am    1  UNL1       -0.3043
     11 C          68.7668   92.6220    8.3719 C.3     1  UNL1        0.0899
     12 C          68.5106   92.0530    9.7360 C.3     1  UNL1        0.0300
     13 C          67.4717   92.9033   10.4052 C.3     1  UNL1        0.0737
     14 C          67.9565   91.7586   11.2446 C.3     1  UNL1        0.0301
     15 C          67.4010   91.5509   12.6224 C.3     1  UNL1        0.0913
     16 N          66.3606   92.4879   13.1607 N.pl3   1  UNL1       -0.3067
     17 C          65.8758   93.6325   12.3213 C.3     1  UNL1        0.0913
     18 C          66.4313   93.8402   10.9435 C.3     1  UNL1        0.0301
     19 H          67.8415   94.3978    7.3994 H       1  UNL1        0.1494
     20 C          63.9323   90.7711   13.5559 C.ar    1  UNL1        0.1480
     21 C          63.7546   89.2963   13.3475 C.ar    1  UNL1        0.0406
     22 C          63.0483   89.0947   12.0397 C.ar    1  UNL1        0.0376
     23 C          62.6073   87.8562   11.3176 C.ar    1  UNL1        0.0031
     24 C          61.9075   87.9678    9.9955 C.ar    1  UNL1        0.0002
     25 C          61.6487   89.3180    9.3956 C.ar    1  UNL1        0.0031
     26 C          62.0897   90.5566   10.1177 C.ar    1  UNL1        0.0375
     27 C          62.7895   90.4450   11.4397 C.ar    1  UNL1        0.1453
     28 O          63.3358   91.4810   12.3768 O.2     1  UNL1       -0.4534
@<TRIPOS>BOND
     1     8     9    2
     2     9    10   am
     3    10    11    1
     4    11    12    1
     5    12    13    1
     6    13    14    1
     7    14    15    1
     8    15    16    1
     9    16     1    1
    10     1     2   ar
    11     2     3    1
    12     2     4   ar
    13     4     5   ar
    14     5     6   ar
    15     6     7   ar
    16     7    20    1
    17    20    21   ar
    18    21    22   ar
    19    22    23   ar
    20    23    24   ar
    21    24    25   ar
    22    25    26   ar
    23    26    27   ar
    24    27    28   ar
    25    16    17    1
    26    17    18    1
    27    13     9    1
    28     7     1   ar
    29    28    20   ar
    30    18    13    1
    31    27    22   ar
    32    10    19    1
@<TRIPOS>MOLECULE
*****
 28 32 0 0 0
SMALL
GASTEIGER

@<TRIPOS>ATOM
      1 C          64.5947   91.5013   12.5943 C.ar    1  UNL1        0.0645
      2 C          65.1388   92.6963   11.8691 C.ar    1  UNL1        0.0901
      3 CL         64.5802   93.0798   10.5308 Cl      1  UNL1       -0.0793
      4 C          66.2414   93.5078   12.4821 C.ar    1  UNL1        0.1115
      5 N          66.8000   93.1242   13.8204 N.ar    1  UNL1       -0.2412
      6 C          66.2558   91.9292   14.5456 C.ar    1  UNL1        0.1032
      7 C          65.1533   91.1178   13.9326 C.ar    1  UNL1        0.0678
      8 O          59.5622   89.0948   12.7972 O.2     1  UNL1       -0.2751
      9 C          59.9873   88.7067   11.4121 C.2     1  UNL1        0.2217
     10 N          59.1875   87.8903   10.4406 N.am    1  UNL1       -0.3043
     11 C          59.9928   87.7459    9.1833 C.3     1  UNL1        0.0899
     12 C          61.2903   88.4731    9.3778 C.3     1  UNL1        0.0300
     13 C          61.2869   89.0669   10.7553 C.3     1  UNL1        0.0737
     14 C          62.5356   89.3476    9.9730 C.3     1  UNL1        0.0301
     15 C          63.6382   90.1590   10.5860 C.3     1  UNL1        0.0913
     16 N          63.4921   90.6898   11.9813 N.pl3   1  UNL1       -0.3067
     17 C          62.2434   90.4091   12.7636 C.3     1  UNL1        0.0913
     18 C          61.1409   89.5977   12.1506 C.3     1  UNL1        0.0301
     19 H          58.2914   87.5152   10.6001 H       1  UNL1        0.1494
     20 C          64.6091   89.9227   14.6578 C.ar    1  UNL1        0.1480
     21 C          63.7843   89.9517   15.9104 C.ar    1  UNL1        0.0406
     22 C          63.4597   88.5359   16.2845 C.ar    1  UNL1        0.0376
     23 C          62.6764   87.9530   17.4232 C.ar    1  UNL1        0.0031
     24 C          62.5173   86.4661   17.5407 C.ar    1  UNL1        0.0002
     25 C          63.1415   85.5621   16.5194 C.ar    1  UNL1        0.0031
     26 C          63.9248   86.1449   15.3806 C.ar    1  UNL1        0.0375
     27 C          64.0839   87.6318   15.2632 C.ar    1  UNL1        0.1453
     28 O          64.7943   88.4889   14.2579 O.2     1  UNL1       -0.4534
@<TRIPOS>BOND
     1     8     9    2
     2     9    10   am
     3    10    11    1
     4    11    12    1
     5    12    13    1
     6    13    14    1
     7    14    15    1
     8    15    16    1
     9    16     1    1
    10     1     2   ar
    11     2     3    1
    12     2     4   ar
    13     4     5   ar
    14     5     6   ar
    15     6     7   ar
    16     7    20    1
    17    20    21   ar
    18    21    22   ar
    19    22    23   ar
    20    23    24   ar
    21    24    25   ar
    22    25    26   ar
    23    26    27   ar
    24    27    28   ar
    25    16    17    1
    26    17    18    1
    27    13     9    1
    28     7     1   ar
    29    28    20   ar
    30    18    13    1
    31    27    22   ar
    32    10    19    1
@<TRIPOS>MOLECULE
*****
 28 32 0 0 0
SMALL
GASTEIGER

@<TRIPOS>ATOM
      1 C          63.5541   86.7075   13.4444 C.ar    1  UNL1        0.0645
      2 C          64.2931   87.1710   14.6646 C.ar    1  UNL1        0.0901
      3 CL         64.7646   86.1729   15.6801 Cl      1  UNL1       -0.0793
      4 C          64.5607   88.6328   14.8692 C.ar    1  UNL1        0.1115
      5 N          64.0892   89.6309   13.8536 N.ar    1  UNL1       -0.2412
      6 C          63.3502   89.1673   12.6334 C.ar    1  UNL1        0.1032
      7 C          63.0826   87.7057   12.4288 C.ar    1  UNL1        0.0678
      8 O          63.9591   82.0031   10.4674 O.2     1  UNL1       -0.2751
      9 C          63.1834   81.5038   11.6502 C.2     1  UNL1        0.2217
     10 N          62.7037   80.0982   11.8604 N.am    1  UNL1       -0.3043
     11 C          61.9750   80.0481   13.1706 C.3     1  UNL1        0.0899
     12 C          62.0044   81.4229   13.7701 C.3     1  UNL1        0.0300
     13 C          62.7512   82.3225   12.8304 C.3     1  UNL1        0.0737
     14 C          62.2540   83.0100   14.0674 C.3     1  UNL1        0.0301
     15 C          62.5216   84.4717   14.2720 C.3     1  UNL1        0.0913
     16 N          63.2864   85.2458   13.2397 N.pl3   1  UNL1       -0.3067
     17 C          63.7837   84.5583   12.0027 C.3     1  UNL1        0.0913
     18 C          63.5160   83.0967   11.7981 C.3     1  UNL1        0.0301
     19 H          62.8427   79.3413   11.2463 H       1  UNL1        0.1494
     20 C          62.3435   87.2421   11.2085 C.ar    1  UNL1        0.1480
     21 C          60.9239   87.5762   10.8576 C.ar    1  UNL1        0.0406
     22 C          60.5973   86.9037    9.5572 C.ar    1  UNL1        0.0376
     23 C          59.3484   86.8771    8.7269 C.ar    1  UNL1        0.0031
     24 C          59.3172   86.1008    7.4438 C.ar    1  UNL1        0.0002
     25 C          60.5349   85.3511    6.9910 C.ar    1  UNL1        0.0031
     26 C          61.7839   85.3776    7.8213 C.ar    1  UNL1        0.0375
     27 C          61.8151   86.1539    9.1044 C.ar    1  UNL1        0.1453
     28 O          62.8943   86.3631   10.1250 O.2     1  UNL1       -0.4534
@<TRIPOS>BOND
     1     8     9    2
     2     9    10   am
     3    10    11    1
     4    11    12    1
     5    12    13    1
     6    13    14    1
     7    14    15    1
     8    15    16    1
     9    16     1    1
    10     1     2   ar
    11     2     3    1
    12     2     4   ar
    13     4     5   ar
    14     5     6   ar
    15     6     7   ar
    16     7    20    1
    17    20    21   ar
    18    21    22   ar
    19    22    23   ar
    20    23    24   ar
    21    24    25   ar
    22    25    26   ar
    23    26    27   ar
    24    27    28   ar
    25    16    17    1
    26    17    18    1
    27    13     9    1
    28     7     1   ar
    29    28    20   ar
    30    18    13    1
    31    27    22   ar
    32    10    19    1
@<TRIPOS>MOLECULE
*****
 28 32 0 0 0
SMALL
GASTEIGER

@<TRIPOS>ATOM
      1 C          63.2006   87.6899   12.4887 C.ar    1  UNL1        0.0645
      2 C          63.4900   89.1529   12.6491 C.ar    1  UNL1        0.0901
      3 CL         63.0827   90.1199   11.5772 Cl      1  UNL1       -0.0793
      4 C          64.1868   89.6490   13.8813 C.ar    1  UNL1        0.1115
      5 N          64.5942   88.6819   14.9532 N.ar    1  UNL1       -0.2412
      6 C          64.3047   87.2188   14.7928 C.ar    1  UNL1        0.1032
      7 C          63.6080   86.7229   13.5606 C.ar    1  UNL1        0.0678
      8 O          58.7503   87.4102    9.1309 O.2     1  UNL1       -0.2751
      9 C          59.7052   86.5292    8.3813 C.2     1  UNL1        0.2217
     10 N          59.4228   85.8209    7.0896 N.am    1  UNL1       -0.3043
     11 C          60.6533   85.0557    6.7018 C.3     1  UNL1        0.0899
     12 C          61.6963   85.2911    7.7540 C.3     1  UNL1        0.0300
     13 C          61.1103   86.2017    8.7920 C.3     1  UNL1        0.0737
     14 C          62.5243   85.7870    9.0723 C.3     1  UNL1        0.0301
     15 C          63.2210   86.2831   10.3045 C.3     1  UNL1        0.0913
     16 N          62.5038   87.1938   11.2564 N.pl3   1  UNL1       -0.3067
     17 C          61.0898   87.6085   10.9761 C.3     1  UNL1        0.0913
     18 C          60.3930   87.1124    9.7439 C.3     1  UNL1        0.0301
     19 H          58.5781   85.8528    6.5848 H       1  UNL1        0.1494
     20 C          63.3185   85.2598   13.4002 C.ar    1  UNL1        0.1480
     21 C          62.4857   84.4195   14.3223 C.ar    1  UNL1        0.0406
     22 C          62.4635   83.0205   13.7816 C.ar    1  UNL1        0.0376
     23 C          61.8033   81.7657   14.2709 C.ar    1  UNL1        0.0031
     24 C          61.9621   80.4865   13.5038 C.ar    1  UNL1        0.0002
     25 C          62.7812   80.4621   12.2474 C.ar    1  UNL1        0.0031
     26 C          63.4414   81.7170   11.7581 C.ar    1  UNL1        0.0375
     27 C          63.2826   82.9962   12.5252 C.ar    1  UNL1        0.1453
     28 O          63.8110   84.3801   12.2895 O.2     1  UNL1       -0.4534
@<TRIPOS>BOND
     1     8     9    2
     2     9    10   am
     3    10    11    1
     4    11    12    1
     5    12    13    1
     6    13    14    1
     7    14    15    1
     8    15    16    1
     9    16     1    1
    10     1     2   ar
    11     2     3    1
    12     2     4   ar
    13     4     5   ar
    14     5     6   ar
    15     6     7   ar
    16     7    20    1
    17    20    21   ar
    18    21    22   ar
    19    22    23   ar
    20    23    24   ar
    21    24    25   ar
    22    25    26   ar
    23    26    27   ar
    24    27    28   ar
    25    16    17    1
    26    17    18    1
    27    13     9    1
    28     7     1   ar
    29    28    20   ar
    30    18    13    1
    31    27    22   ar
    32    10    19    1
@<TRIPOS>MOLECULE
*****
 28 32 0 0 0
SMALL
GASTEIGER

@<TRIPOS>ATOM
      1 C          63.0470   84.3801   12.9294 C.ar    1  UNL1        0.0645
      2 C          62.9570   82.8925   13.0994 C.ar    1  UNL1        0.0901
      3 CL         62.2154   82.0659   12.0911 Cl      1  UNL1       -0.0793
      4 C          63.6086   82.2315   14.2779 C.ar    1  UNL1        0.1115
      5 N          64.3502   83.0582   15.2862 N.ar    1  UNL1       -0.2412
      6 C          64.4402   84.5459   15.1161 C.ar    1  UNL1        0.1032
      7 C          63.7886   85.2068   13.9377 C.ar    1  UNL1        0.0678
      8 O          62.4193   85.1234    7.4328 O.2     1  UNL1       -0.2751
      9 C          61.4028   86.0971    7.9510 C.2     1  UNL1        0.2217
     10 N          60.5183   86.9757    7.1170 N.am    1  UNL1       -0.3043
     11 C          59.6611   87.7848    8.0447 C.3     1  UNL1        0.0899
     12 C          60.0159   87.4061    9.4522 C.3     1  UNL1        0.0300
     13 C          61.0923   86.3630    9.3943 C.3     1  UNL1        0.0737
     14 C          60.6758   86.7332   10.7869 C.3     1  UNL1        0.0301
     15 C          61.3274   86.0722   11.9652 C.3     1  UNL1        0.0913
     16 N          62.3955   85.0411   11.7509 N.pl3   1  UNL1       -0.3067
     17 C          62.8120   84.6709   10.3583 C.3     1  UNL1        0.0913
     18 C          62.1604   85.3319    9.1800 C.3     1  UNL1        0.0301
     19 H          60.5030   87.0145    6.1333 H       1  UNL1        0.1494
     20 C          63.8786   86.6944   13.7675 C.ar    1  UNL1        0.1480
     21 C          64.4839   87.6585   14.7444 C.ar    1  UNL1        0.0406
     22 C          64.3585   89.0391   14.1713 C.ar    1  UNL1        0.0376
     23 C          64.7778   90.3828   14.6895 C.ar    1  UNL1        0.0031
     24 C          64.5144   91.6156   13.8767 C.ar    1  UNL1        0.0002
     25 C          63.8317   91.5048   12.5457 C.ar    1  UNL1        0.0031
     26 C          63.4123   90.1610   12.0275 C.ar    1  UNL1        0.0375
     27 C          63.6758   88.9281   12.8403 C.ar    1  UNL1        0.1453
     28 O          63.3792   87.4791   12.5908 O.2     1  UNL1       -0.4534
@<TRIPOS>BOND
     1     8     9    2
     2     9    10   am
     3    10    11    1
     4    11    12    1
     5    12    13    1
     6    13    14    1
     7    14    15    1
     8    15    16    1
     9    16     1    1
    10     1     2   ar
    11     2     3    1
    12     2     4   ar
    13     4     5   ar
    14     5     6   ar
    15     6     7   ar
    16     7    20    1
    17    20    21   ar
    18    21    22   ar
    19    22    23   ar
    20    23    24   ar
    21    24    25   ar
    22    25    26   ar
    23    26    27   ar
    24    27    28   ar
    25    16    17    1
    26    17    18    1
    27    13     9    1
    28     7     1   ar
    29    28    20   ar
    30    18    13    1
    31    27    22   ar
    32    10    19    1
@<TRIPOS>MOLECULE
*****
 28 32 0 0 0
SMALL
GASTEIGER

@<TRIPOS>ATOM
      1 C          60.9075   88.0362    9.2877 C.ar    1  UNL1        0.0645
      2 C          60.0608   88.9347    8.4357 C.ar    1  UNL1        0.0901
      3 CL         60.1055   90.4204    8.6375 Cl      1  UNL1       -0.0793
      4 C          59.1694   88.3474    7.3818 C.ar    1  UNL1        0.1115
      5 N          59.1247   86.8618    7.1799 N.ar    1  UNL1       -0.2412
      6 C          59.9715   85.9633    8.0320 C.ar    1  UNL1        0.1032
      7 C          60.8628   86.5506    9.0858 C.ar    1  UNL1        0.0678
      8 O          63.8150   87.6609   14.0378 O.2     1  UNL1       -0.2751
      9 C          64.0986   89.0856   13.6639 C.2     1  UNL1        0.2217
     10 N          64.9490   90.0480   14.4388 N.am    1  UNL1       -0.3043
     11 C          64.9575   91.3553   13.7032 C.3     1  UNL1        0.0899
     12 C          64.1124   91.2007   12.4735 C.3     1  UNL1        0.0300
     13 C          63.5815   89.7980   12.4492 C.3     1  UNL1        0.0737
     14 C          63.1433   90.6364   11.2852 C.3     1  UNL1        0.0301
     15 C          62.2519   90.0492   10.2314 C.3     1  UNL1        0.0913
     16 N          61.7989   88.6235   10.3416 N.pl3   1  UNL1       -0.3067
     17 C          62.2371   87.7850   11.5055 C.3     1  UNL1        0.0913
     18 C          63.1285   88.3723   12.5594 C.3     1  UNL1        0.0301
     19 H          65.4190   89.8555   15.2822 H       1  UNL1        0.1494
     20 C          61.7095   85.6521    9.9379 C.ar    1  UNL1        0.1480
     21 C          62.8953   84.8586    9.4750 C.ar    1  UNL1        0.0406
     22 C          63.4378   84.1055   10.6533 C.ar    1  UNL1        0.0376
     23 C          64.5963   83.1634   10.7956 C.ar    1  UNL1        0.0031
     24 C          64.9043   82.5494   12.1291 C.ar    1  UNL1        0.0002
     25 C          64.0538   82.8775   13.3203 C.ar    1  UNL1        0.0031
     26 C          62.8952   83.8197   13.1780 C.ar    1  UNL1        0.0375
     27 C          62.5872   84.4337   11.8446 C.ar    1  UNL1        0.1453
     28 O          61.5191   85.3895   11.4024 O.2     1  UNL1       -0.4534
@<TRIPOS>BOND
     1     8     9    2
     2     9    10   am
     3    10    11    1
     4    11    12    1
     5    12    13    1
     6    13    14    1
     7    14    15    1
     8    15    16    1
     9    16     1    1
    10     1     2   ar
    11     2     3    1
    12     2     4   ar
    13     4     5   ar
    14     5     6   ar
    15     6     7   ar
    16     7    20    1
    17    20    21   ar
    18    21    22   ar
    19    22    23   ar
    20    23    24   ar
    21    24    25   ar
    22    25    26   ar
    23    26    27   ar
    24    27    28   ar
    25    16    17    1
    26    17    18    1
    27    13     9    1
    28     7     1   ar
    29    28    20   ar
    30    18    13    1
    31    27    22   ar
    32    10    19    1
