@<TRIPOS>MOLECULE
*****
 32 35 0 0 0
SMALL
GASTEIGER

@<TRIPOS>ATOM
      1 N          63.7580   87.0340   15.6668 N.am    1  UNL1       -0.2681
      2 C          64.1937   88.1251   14.7343 C.2     1  UNL1        0.3082
      3 O          64.2551   87.8696   13.2576 O.2     1  UNL1       -0.2522
      4 N          64.5680   89.4719   15.2786 N.am    1  UNL1       -0.2681
      5 H          63.7177   87.2017   16.6360 H       1  UNL1        0.1564
      6 H          64.5277   89.6396   16.2479 H       1  UNL1        0.1564
      7 C          63.3343   83.9894   13.1565 C.ar    1  UNL1        0.0769
      8 C          62.6351   82.9938   14.0340 C.ar    1  UNL1        0.0065
      9 C          62.3102   83.3449   15.4557 C.ar    1  UNL1        0.0015
     10 C          62.6846   84.6916   15.9999 C.ar    1  UNL1        0.0147
     11 C          63.3837   85.6872   15.1225 C.ar    1  UNL1        0.0518
     12 C          63.7086   85.3362   13.7008 C.ar    1  UNL1        0.0211
     13 C          63.6591   83.6383   11.7349 C.2     1  UNL1        0.3412
     14 O          64.7135   82.6138   11.4375 O.2     1  UNL1       -0.2449
     15 O          62.9294   84.3117   10.6105 O.3     1  UNL1       -0.4454
     16 C          63.0648   85.2993    8.2113 C.3     1  UNL1        0.0513
     17 C          63.4963   84.2786    9.2221 C.3     1  UNL1        0.2089
     18 C          65.0036   90.5630   14.3462 C.ar    1  UNL1        0.0516
     19 C          64.1446   90.9356   13.1743 C.ar    1  UNL1        0.0147
     20 C          64.5803   92.0267   12.2419 C.ar    1  UNL1        0.0010
     21 C          65.8750   92.7454   12.4813 C.ar    1  UNL1       -0.0014
     22 C          66.7341   92.3729   13.6531 C.ar    1  UNL1        0.0010
     23 C          66.2983   91.2817   14.5856 C.ar    1  UNL1        0.0147
     24 C          66.3107   93.8366   11.5488 C.2     1  UNL1        0.0158
     25 C          65.8975   95.2549   11.8089 C.2     1  UNL1        0.0487
     26 C          66.3331   96.3460   10.8765 C.2     1  UNL1        0.2355
     27 N          67.1820   96.0189    9.6838 N.2     1  UNL1       -0.0325
     28 C          67.5952   94.6006    9.4236 C.2     1  UNL1        0.3799
     29 N          68.4228   93.9795    8.3377 N.2     1  UNL1       -0.0106
     30 C          68.4986   92.5044    8.5991 C.2     1  UNL1        0.3351
     31 N          67.7179   92.2139    9.8465 N.2     1  UNL1       -0.2103
     32 C          67.1596   93.5095   10.3561 C.3     1  UNL1        0.2404
@<TRIPOS>BOND
     1    16    17    1
     2    17    15    1
     3    15    13    1
     4    13    14    2
     5    13     7    1
     6     7     8   ar
     7     8     9   ar
     8     9    10   ar
     9    10    11   ar
    10    11     1    1
    11     1     2   am
    12     2     3    2
    13     2     4   am
    14     4    18    1
    15    18    19   ar
    16    19    20   ar
    17    20    21   ar
    18    21    24    1
    19    24    25    2
    20    25    26    1
    21    26    27    2
    22    27    28    1
    23    28    29    2
    24    29    30    1
    25    30    31    2
    26    31    32    1
    27    21    22   ar
    28    22    23   ar
    29    11    12   ar
    30    12     7   ar
    31    23    18   ar
    32    32    24    1
    33    32    28    1
    34     1     5    1
    35     4     6    1
@<TRIPOS>MOLECULE
*****
 32 35 0 0 0
SMALL
GASTEIGER

@<TRIPOS>ATOM
      1 N          64.5163   90.6347   15.6847 N.am    1  UNL1       -0.2681
      2 C          64.2902   89.2597   15.1297 C.2     1  UNL1        0.3082
      3 O          64.7329   88.9318   13.7346 O.2     1  UNL1       -0.2522
      4 N          63.6212   88.2124   15.9699 N.am    1  UNL1       -0.2681
      5 H          64.2258   90.8498   16.6004 H       1  UNL1        0.1564
      6 H          63.3306   88.4275   16.8856 H       1  UNL1        0.1564
      7 C          65.5734   92.8023   12.5328 C.ar    1  UNL1        0.0769
      8 C          66.5232   93.7765   13.1645 C.ar    1  UNL1        0.0065
      9 C          66.8040   93.7034   14.6361 C.ar    1  UNL1        0.0015
     10 C          66.1350   92.6562   15.4762 C.ar    1  UNL1        0.0147
     11 C          65.1853   91.6820   14.8446 C.ar    1  UNL1        0.0518
     12 C          64.9045   91.7550   13.3730 C.ar    1  UNL1        0.0211
     13 C          65.2926   92.8753   11.0612 C.2     1  UNL1        0.3412
     14 O          64.2594   91.9765   10.4493 O.2     1  UNL1       -0.2449
     15 O          66.0451   93.8473   10.2014 O.3     1  UNL1       -0.4454
     16 C          67.9772   92.1301    9.9403 C.3     1  UNL1        0.0513
     17 C          67.3545   93.4484    9.5879 C.3     1  UNL1        0.2089
     18 C          63.3950   86.8374   15.4149 C.ar    1  UNL1        0.0516
     19 C          62.6983   85.7992   16.2437 C.ar    1  UNL1        0.0147
     20 C          62.4721   84.4243   15.6887 C.ar    1  UNL1        0.0010
     21 C          62.9426   84.0873   14.3048 C.ar    1  UNL1       -0.0014
     22 C          63.6393   85.1254   13.4759 C.ar    1  UNL1        0.0010
     23 C          63.8655   86.5004   14.0310 C.ar    1  UNL1        0.0147
     24 C          62.7164   82.7122   13.7498 C.2     1  UNL1        0.0158
     25 C          62.0485   81.6647   14.5903 C.2     1  UNL1        0.0487
     26 C          61.8222   80.2897   14.0354 C.2     1  UNL1        0.2355
     27 N          62.2640   79.9621   12.6398 N.2     1  UNL1       -0.0325
     28 C          62.9319   81.0096   11.7992 C.2     1  UNL1        0.3799
     29 N          63.4713   80.9800   10.3999 N.2     1  UNL1       -0.0106
     30 C          64.0309   82.3367   10.0900 C.2     1  UNL1        0.3351
     31 N          63.8373   83.2049   11.2979 N.2     1  UNL1       -0.2103
     32 C          63.1581   82.3847   12.3542 C.3     1  UNL1        0.2404
@<TRIPOS>BOND
     1    16    17    1
     2    17    15    1
     3    15    13    1
     4    13    14    2
     5    13     7    1
     6     7     8   ar
     7     8     9   ar
     8     9    10   ar
     9    10    11   ar
    10    11     1    1
    11     1     2   am
    12     2     3    2
    13     2     4   am
    14     4    18    1
    15    18    19   ar
    16    19    20   ar
    17    20    21   ar
    18    21    24    1
    19    24    25    2
    20    25    26    1
    21    26    27    2
    22    27    28    1
    23    28    29    2
    24    29    30    1
    25    30    31    2
    26    31    32    1
    27    21    22   ar
    28    22    23   ar
    29    11    12   ar
    30    12     7   ar
    31    23    18   ar
    32    32    24    1
    33    32    28    1
    34     1     5    1
    35     4     6    1
@<TRIPOS>MOLECULE
*****
 32 35 0 0 0
SMALL
GASTEIGER

@<TRIPOS>ATOM
      1 N          62.3008   83.6238   15.4261 N.am    1  UNL1       -0.2681
      2 C          62.8969   84.9550   15.0764 C.2     1  UNL1        0.3082
      3 O          63.5174   85.1679   13.7275 O.2     1  UNL1       -0.2522
      4 N          62.8727   86.0735   16.0757 N.am    1  UNL1       -0.2681
      5 H          61.8936   83.4841   16.3115 H       1  UNL1        0.1564
      6 H          62.4655   85.9338   16.9611 H       1  UNL1        0.1564
      7 C          62.9445   81.6080   12.0687 C.ar    1  UNL1        0.0769
      8 C          62.3734   80.2683   12.4285 C.ar    1  UNL1        0.0065
      9 C          61.7781   80.0473   13.7875 C.ar    1  UNL1        0.0015
     10 C          61.7539   81.1658   14.7867 C.ar    1  UNL1        0.0147
     11 C          62.3250   82.5053   14.4269 C.ar    1  UNL1        0.0518
     12 C          62.9202   82.7265   13.0680 C.ar    1  UNL1        0.0211
     13 C          63.5397   81.8291   10.7098 C.2     1  UNL1        0.3412
     14 O          63.4749   80.7433    9.6769 O.2     1  UNL1       -0.2449
     15 O          64.1997   83.1360   10.3836 O.3     1  UNL1       -0.4454
     16 C          62.6595   85.2241   10.2496 C.3     1  UNL1        0.0513
     17 C          63.4701   84.1618    9.5679 C.3     1  UNL1        0.2089
     18 C          63.4689   87.4047   15.7260 C.ar    1  UNL1        0.0516
     19 C          63.0662   88.6309   16.4905 C.ar    1  UNL1        0.0147
     20 C          63.6624   89.9621   16.1408 C.ar    1  UNL1        0.0010
     21 C          64.6613   90.0672   15.0266 C.ar    1  UNL1       -0.0014
     22 C          65.0639   88.8410   14.2621 C.ar    1  UNL1        0.0010
     23 C          64.4677   87.5098   14.6119 C.ar    1  UNL1        0.0147
     24 C          65.2575   91.3985   14.6769 C.2     1  UNL1        0.0158
     25 C          65.9400   92.2155   15.7336 C.2     1  UNL1        0.0487
     26 C          66.5361   93.5467   15.3840 C.2     1  UNL1        0.2355
     27 N          66.4498   94.0611   13.9775 N.2     1  UNL1       -0.0325
     28 C          65.7673   93.2441   12.9208 C.2     1  UNL1        0.3799
     29 N          65.5294   93.4893   11.4602 N.2     1  UNL1       -0.0106
     30 C          64.7862   92.3095   10.9072 C.2     1  UNL1        0.3351
     31 N          64.5648   91.3352   12.0260 N.2     1  UNL1       -0.2103
     32 C          65.1711   91.9128   13.2705 C.3     1  UNL1        0.2404
@<TRIPOS>BOND
     1    16    17    1
     2    17    15    1
     3    15    13    1
     4    13    14    2
     5    13     7    1
     6     7     8   ar
     7     8     9   ar
     8     9    10   ar
     9    10    11   ar
    10    11     1    1
    11     1     2   am
    12     2     3    2
    13     2     4   am
    14     4    18    1
    15    18    19   ar
    16    19    20   ar
    17    20    21   ar
    18    21    24    1
    19    24    25    2
    20    25    26    1
    21    26    27    2
    22    27    28    1
    23    28    29    2
    24    29    30    1
    25    30    31    2
    26    31    32    1
    27    21    22   ar
    28    22    23   ar
    29    11    12   ar
    30    12     7   ar
    31    23    18   ar
    32    32    24    1
    33    32    28    1
    34     1     5    1
    35     4     6    1
@<TRIPOS>MOLECULE
*****
 32 35 0 0 0
SMALL
GASTEIGER

@<TRIPOS>ATOM
      1 N          63.5049   90.6133   13.4462 N.am    1  UNL1       -0.2681
      2 C          63.5677   89.1295   13.2363 C.2     1  UNL1        0.3082
      3 O          64.6247   88.3185   13.9255 O.2     1  UNL1       -0.2522
      4 N          62.5735   88.4565   12.3370 N.am    1  UNL1       -0.2681
      5 H          62.8112   91.1456   12.9938 H       1  UNL1        0.1564
      6 H          61.8798   88.9887   11.8845 H       1  UNL1        0.1564
      7 C          66.8833   92.2348   14.7530 C.ar    1  UNL1        0.0769
      8 C          66.4874   92.6323   16.1442 C.ar    1  UNL1        0.0065
      9 C          65.0974   92.3568   16.6360 C.ar    1  UNL1        0.0015
     10 C          64.1033   91.6838   15.7367 C.ar    1  UNL1        0.0147
     11 C          64.4992   91.2863   14.3456 C.ar    1  UNL1        0.0518
     12 C          65.8891   91.5618   13.8537 C.ar    1  UNL1        0.0211
     13 C          68.2733   92.5103   14.2612 C.2     1  UNL1        0.3412
     14 O          69.2264   93.2992   15.1093 O.2     1  UNL1       -0.2449
     15 O          68.7103   91.9970   12.9211 O.3     1  UNL1       -0.4454
     16 C          68.4409   91.9640   10.3373 C.3     1  UNL1        0.0513
     17 C          67.9188   92.3369   11.6931 C.3     1  UNL1        0.2089
     18 C          62.6363   86.9727   12.1270 C.ar    1  UNL1        0.0516
     19 C          63.3442   86.1034   13.1236 C.ar    1  UNL1        0.0147
     20 C          63.4070   84.6196   12.9137 C.ar    1  UNL1        0.0010
     21 C          62.7618   84.0048   11.7070 C.ar    1  UNL1       -0.0014
     22 C          62.0539   84.8740   10.7103 C.ar    1  UNL1        0.0010
     23 C          61.9912   86.3580   10.9204 C.ar    1  UNL1        0.0147
     24 C          62.8246   82.5209   11.4970 C.2     1  UNL1        0.0158
     25 C          63.3701   81.9674   10.2140 C.2     1  UNL1        0.0487
     26 C          63.4329   80.4836   10.0041 C.2     1  UNL1        0.2355
     27 N          62.9502   79.5531   11.0771 N.2     1  UNL1       -0.0325
     28 C          62.4047   80.1066   12.3600 C.2     1  UNL1        0.3799
     29 N          61.8595   79.4411   13.5888 N.2     1  UNL1       -0.0106
     30 C          61.4598   80.5137   14.5582 C.2     1  UNL1        0.3351
     31 N          61.7579   81.8421   13.9286 N.2     1  UNL1       -0.2103
     32 C          62.3419   81.5905   12.5700 C.3     1  UNL1        0.2404
@<TRIPOS>BOND
     1    16    17    1
     2    17    15    1
     3    15    13    1
     4    13    14    2
     5    13     7    1
     6     7     8   ar
     7     8     9   ar
     8     9    10   ar
     9    10    11   ar
    10    11     1    1
    11     1     2   am
    12     2     3    2
    13     2     4   am
    14     4    18    1
    15    18    19   ar
    16    19    20   ar
    17    20    21   ar
    18    21    24    1
    19    24    25    2
    20    25    26    1
    21    26    27    2
    22    27    28    1
    23    28    29    2
    24    29    30    1
    25    30    31    2
    26    31    32    1
    27    21    22   ar
    28    22    23   ar
    29    11    12   ar
    30    12     7   ar
    31    23    18   ar
    32    32    24    1
    33    32    28    1
    34     1     5    1
    35     4     6    1
@<TRIPOS>MOLECULE
*****
 32 35 0 0 0
SMALL
GASTEIGER

@<TRIPOS>ATOM
      1 N          61.7896   84.9257   11.2140 N.am    1  UNL1       -0.2681
      2 C          62.6145   86.1122   11.6159 C.2     1  UNL1        0.3082
      3 O          64.0350   85.9229   12.0587 O.2     1  UNL1       -0.2522
      4 N          62.0188   87.4884   11.5750 N.am    1  UNL1       -0.2681
      5 H          60.8573   85.0500   10.9234 H       1  UNL1        0.1564
      6 H          61.0864   87.6127   11.2844 H       1  UNL1        0.1564
      7 C          62.7382   81.2861   12.4805 C.ar    1  UNL1        0.0769
      8 C          63.5767   80.7975   11.3366 C.ar    1  UNL1        0.0065
      9 C          63.8194   81.6850   10.1519 C.ar    1  UNL1        0.0015
     10 C          63.2237   83.0610   10.1110 C.ar    1  UNL1        0.0147
     11 C          62.3853   83.5496   11.2549 C.ar    1  UNL1        0.0518
     12 C          62.1425   82.6622   12.4396 C.ar    1  UNL1        0.0211
     13 C          62.4955   80.3987   13.6651 C.2     1  UNL1        0.3412
     14 O          63.5731   80.2049   14.6903 O.2     1  UNL1       -0.2449
     15 O          61.1751   79.7049   13.8245 O.3     1  UNL1       -0.4454
     16 C          58.6795   79.7819   14.5431 C.3     1  UNL1        0.0513
     17 C          59.9538   80.4928   14.1957 C.3     1  UNL1        0.2089
     18 C          62.8436   88.6749   11.9769 C.ar    1  UNL1        0.0516
     19 C          62.9672   89.8501   11.0529 C.ar    1  UNL1        0.0147
     20 C          63.7921   91.0366   11.4548 C.ar    1  UNL1        0.0010
     21 C          64.4934   91.0481   12.7808 C.ar    1  UNL1       -0.0014
     22 C          64.3698   89.8730   13.7048 C.ar    1  UNL1        0.0010
     23 C          63.5449   88.6864   13.3028 C.ar    1  UNL1        0.0147
     24 C          65.3183   92.2348   13.1827 C.2     1  UNL1        0.0158
     25 C          65.8129   92.3613   14.5931 C.2     1  UNL1        0.0487
     26 C          66.6377   93.5478   14.9950 C.2     1  UNL1        0.2355
     27 N          66.9680   94.6080   13.9864 N.2     1  UNL1       -0.0325
     28 C          66.4734   94.4815   12.5760 C.2     1  UNL1        0.3799
     29 N          66.6380   95.3608   11.3720 N.2     1  UNL1       -0.0106
     30 C          65.9149   94.7176   10.2260 C.2     1  UNL1        0.3351
     31 N          65.3033   93.4408   10.7217 N.2     1  UNL1       -0.2103
     32 C          65.6485   93.2948   12.1741 C.3     1  UNL1        0.2404
@<TRIPOS>BOND
     1    16    17    1
     2    17    15    1
     3    15    13    1
     4    13    14    2
     5    13     7    1
     6     7     8   ar
     7     8     9   ar
     8     9    10   ar
     9    10    11   ar
    10    11     1    1
    11     1     2   am
    12     2     3    2
    13     2     4   am
    14     4    18    1
    15    18    19   ar
    16    19    20   ar
    17    20    21   ar
    18    21    24    1
    19    24    25    2
    20    25    26    1
    21    26    27    2
    22    27    28    1
    23    28    29    2
    24    29    30    1
    25    30    31    2
    26    31    32    1
    27    21    22   ar
    28    22    23   ar
    29    11    12   ar
    30    12     7   ar
    31    23    18   ar
    32    32    24    1
    33    32    28    1
    34     1     5    1
    35     4     6    1
@<TRIPOS>MOLECULE
*****
 32 35 0 0 0
SMALL
GASTEIGER

@<TRIPOS>ATOM
      1 N          71.3142   74.2443   15.7090 N.am    1  UNL1       -0.2681
      2 C          71.6373   75.0129   14.4621 C.2     1  UNL1        0.3082
      3 O          72.1019   74.2883   13.2337 O.2     1  UNL1       -0.2522
      4 N          71.4959   76.5062   14.4436 N.am    1  UNL1       -0.2681
      5 H          71.0093   74.7200   16.5153 H       1  UNL1        0.1564
      6 H          71.1910   76.9818   15.2499 H       1  UNL1        0.1564
      7 C          71.1477   70.4473   14.5668 C.ar    1  UNL1        0.0769
      8 C          71.7386   69.7647   15.7648 C.ar    1  UNL1        0.0065
      9 C          72.1881   70.5754   16.9441 C.ar    1  UNL1        0.0015
     10 C          72.0466   72.0686   16.9255 C.ar    1  UNL1        0.0147
     11 C          71.4557   72.7511   15.7276 C.ar    1  UNL1        0.0518
     12 C          71.0062   71.9405   14.5482 C.ar    1  UNL1        0.0211
     13 C          70.6982   69.6366   13.3875 C.2     1  UNL1        0.3412
     14 O          70.3125   68.1985   13.5691 O.2     1  UNL1       -0.2449
     15 O          70.6344   70.2641   12.0265 O.3     1  UNL1       -0.4454
     16 C          68.0447   70.1810   11.8359 C.3     1  UNL1        0.0513
     17 C          69.3974   70.1185   11.1907 C.3     1  UNL1        0.2089
     18 C          71.8190   77.2747   13.1967 C.ar    1  UNL1        0.0516
     19 C          73.1378   77.9780   13.0697 C.ar    1  UNL1        0.0147
     20 C          73.4609   78.7465   11.8228 C.ar    1  UNL1        0.0010
     21 C          72.4652   78.8119   10.7028 C.ar    1  UNL1       -0.0014
     22 C          71.1463   78.1086   10.8298 C.ar    1  UNL1        0.0010
     23 C          70.8233   77.3401   12.0768 C.ar    1  UNL1        0.0147
     24 C          72.7883   79.5805    9.4559 C.2     1  UNL1        0.0158
     25 C          73.3083   78.8625    8.2459 C.2     1  UNL1        0.0487
     26 C          73.6315   79.6310    6.9990 C.2     1  UNL1        0.2355
     27 N          73.4346   81.1177    6.9620 N.2     1  UNL1       -0.0325
     28 C          72.9146   81.8356    8.1720 C.2     1  UNL1        0.3799
     29 N          72.6208   83.2836    8.4307 N.2     1  UNL1       -0.0106
     30 C          72.1161   83.4100    9.8376 C.2     1  UNL1        0.3351
     31 N          72.0980   82.0400   10.4483 N.2     1  UNL1       -0.2103
     32 C          72.5914   81.0670    9.4189 C.3     1  UNL1        0.2404
@<TRIPOS>BOND
     1    16    17    1
     2    17    15    1
     3    15    13    1
     4    13    14    2
     5    13     7    1
     6     7     8   ar
     7     8     9   ar
     8     9    10   ar
     9    10    11   ar
    10    11     1    1
    11     1     2   am
    12     2     3    2
    13     2     4   am
    14     4    18    1
    15    18    19   ar
    16    19    20   ar
    17    20    21   ar
    18    21    24    1
    19    24    25    2
    20    25    26    1
    21    26    27    2
    22    27    28    1
    23    28    29    2
    24    29    30    1
    25    30    31    2
    26    31    32    1
    27    21    22   ar
    28    22    23   ar
    29    11    12   ar
    30    12     7   ar
    31    23    18   ar
    32    32    24    1
    33    32    28    1
    34     1     5    1
    35     4     6    1
@<TRIPOS>MOLECULE
*****
 32 35 0 0 0
SMALL
GASTEIGER

@<TRIPOS>ATOM
      1 N          61.6728   84.9815   11.3579 N.am    1  UNL1       -0.2681
      2 C          62.4955   86.2227   11.5374 C.2     1  UNL1        0.3082
      3 O          63.9808   86.1184   11.7189 O.2     1  UNL1       -0.2522
      4 N          61.8329   87.5685   11.5355 N.am    1  UNL1       -0.2681
      5 H          60.6980   85.0500   11.2388 H       1  UNL1        0.1564
      6 H          60.8581   87.6371   11.4164 H       1  UNL1        0.1564
      7 C          62.7541   81.3355   12.4928 C.ar    1  UNL1        0.0769
      8 C          63.6606   80.9443   11.3635 C.ar    1  UNL1        0.0065
      9 C          63.9044   81.8988   10.2323 C.ar    1  UNL1        0.0015
     10 C          63.2418   83.2445   10.2305 C.ar    1  UNL1        0.0147
     11 C          62.3354   83.6357   11.3598 C.ar    1  UNL1        0.0518
     12 C          62.0915   82.6813   12.4909 C.ar    1  UNL1        0.0211
     13 C          62.5102   80.3811   13.6239 C.2     1  UNL1        0.3412
     14 O          63.5952   80.1096   14.6233 O.2     1  UNL1       -0.2449
     15 O          61.1812   79.6980   13.7556 O.3     1  UNL1       -0.4454
     16 C          58.7073   79.7666   14.5464 C.3     1  UNL1        0.0513
     17 C          59.9740   80.4811   14.1793 C.3     1  UNL1        0.2089
     18 C          62.6556   88.8098   11.7151 C.ar    1  UNL1        0.0516
     19 C          63.4197   89.0256   12.9878 C.ar    1  UNL1        0.0147
     20 C          64.2424   90.2669   13.1673 C.ar    1  UNL1        0.0010
     21 C          64.3010   91.2925   12.0742 C.ar    1  UNL1       -0.0014
     22 C          63.5370   91.0767   10.8015 C.ar    1  UNL1        0.0010
     23 C          62.7143   89.8353   10.6220 C.ar    1  UNL1        0.0147
     24 C          65.1238   92.5338   12.2538 C.2     1  UNL1        0.0158
     25 C          65.1982   93.5500   11.1530 C.2     1  UNL1        0.0487
     26 C          66.0209   94.7913   11.3325 C.2     1  UNL1        0.2355
     27 N          66.7693   95.0164   12.6129 N.2     1  UNL1       -0.0325
     28 C          66.6948   94.0002   13.7137 C.2     1  UNL1        0.3799
     29 N          67.3191   93.9495   15.0767 N.2     1  UNL1       -0.0106
     30 C          66.8822   92.6767   15.7394 C.2     1  UNL1        0.3351
     31 N          65.9879   91.9409   14.7861 N.2     1  UNL1       -0.2103
     32 C          65.8721   92.7589   13.5341 C.3     1  UNL1        0.2404
@<TRIPOS>BOND
     1    16    17    1
     2    17    15    1
     3    15    13    1
     4    13    14    2
     5    13     7    1
     6     7     8   ar
     7     8     9   ar
     8     9    10   ar
     9    10    11   ar
    10    11     1    1
    11     1     2   am
    12     2     3    2
    13     2     4   am
    14     4    18    1
    15    18    19   ar
    16    19    20   ar
    17    20    21   ar
    18    21    24    1
    19    24    25    2
    20    25    26    1
    21    26    27    2
    22    27    28    1
    23    28    29    2
    24    29    30    1
    25    30    31    2
    26    31    32    1
    27    21    22   ar
    28    22    23   ar
    29    11    12   ar
    30    12     7   ar
    31    23    18   ar
    32    32    24    1
    33    32    28    1
    34     1     5    1
    35     4     6    1
@<TRIPOS>MOLECULE
*****
 32 35 0 0 0
SMALL
GASTEIGER

@<TRIPOS>ATOM
      1 N          62.8942   83.9553   14.9628 N.am    1  UNL1       -0.2681
      2 C          63.2435   85.2418   14.2753 C.2     1  UNL1        0.3082
      3 O          63.3549   85.2871   12.7802 O.2     1  UNL1       -0.2522
      4 N          63.4813   86.4833   15.0830 N.am    1  UNL1       -0.2681
      5 H          62.8210   83.9256   15.9441 H       1  UNL1        0.1564
      6 H          63.4082   86.4536   16.0644 H       1  UNL1        0.1564
      7 C          62.9770   81.3620   11.9597 C.ar    1  UNL1        0.0769
      8 C          62.1805   80.2310   12.5398 C.ar    1  UNL1        0.0065
      9 C          61.6219   80.3415   13.9276 C.ar    1  UNL1        0.0015
     10 C          61.8598   81.5829   14.7352 C.ar    1  UNL1        0.0147
     11 C          62.6563   82.7138   14.1551 C.ar    1  UNL1        0.0518
     12 C          63.2149   82.6035   12.7674 C.ar    1  UNL1        0.0211
     13 C          63.5356   81.2516   10.5720 C.2     1  UNL1        0.3412
     14 O          63.0294   80.1890    9.6422 O.2     1  UNL1       -0.2449
     15 O          64.6004   82.2038   10.1141 O.3     1  UNL1       -0.4454
     16 C          63.3590   84.2307    9.0650 C.3     1  UNL1        0.0513
     17 C          64.3219   83.6771   10.0732 C.3     1  UNL1        0.2089
     18 C          63.8306   87.7698   14.3956 C.ar    1  UNL1        0.0516
     19 C          63.3020   88.0532   13.0207 C.ar    1  UNL1        0.0147
     20 C          63.6514   89.3397   12.3333 C.ar    1  UNL1        0.0010
     21 C          64.5293   90.3431   13.0207 C.ar    1  UNL1       -0.0014
     22 C          65.0579   90.0598   14.3956 C.ar    1  UNL1        0.0010
     23 C          64.7086   88.7732   15.0830 C.ar    1  UNL1        0.0147
     24 C          64.8787   91.6297   12.3332 C.2     1  UNL1        0.0158
     25 C          64.4571   91.8592   10.9121 C.2     1  UNL1        0.0487
     26 C          64.8063   93.1457   10.2247 C.2     1  UNL1        0.2355
     27 N          65.5773   94.2029   10.9583 N.2     1  UNL1       -0.0325
     28 C          65.9989   93.9734   12.3794 C.2     1  UNL1        0.3799
     29 N          66.7616   94.8255   13.3500 N.2     1  UNL1       -0.0106
     30 C          66.8837   94.0655   14.6374 C.2     1  UNL1        0.3351
     31 N          66.1964   92.7437   14.4625 N.2     1  UNL1       -0.2103
     32 C          65.6496   92.6868   13.0669 C.3     1  UNL1        0.2404
@<TRIPOS>BOND
     1    16    17    1
     2    17    15    1
     3    15    13    1
     4    13    14    2
     5    13     7    1
     6     7     8   ar
     7     8     9   ar
     8     9    10   ar
     9    10    11   ar
    10    11     1    1
    11     1     2   am
    12     2     3    2
    13     2     4   am
    14     4    18    1
    15    18    19   ar
    16    19    20   ar
    17    20    21   ar
    18    21    24    1
    19    24    25    2
    20    25    26    1
    21    26    27    2
    22    27    28    1
    23    28    29    2
    24    29    30    1
    25    30    31    2
    26    31    32    1
    27    21    22   ar
    28    22    23   ar
    29    11    12   ar
    30    12     7   ar
    31    23    18   ar
    32    32    24    1
    33    32    28    1
    34     1     5    1
    35     4     6    1
@<TRIPOS>MOLECULE
*****
 32 35 0 0 0
SMALL
GASTEIGER

@<TRIPOS>ATOM
      1 N          64.6771   90.9910   15.7123 N.am    1  UNL1       -0.2681
      2 C          64.6209   89.7021   14.9473 C.2     1  UNL1        0.3082
      3 O          65.4935   89.5060   13.7431 O.2     1  UNL1       -0.2522
      4 N          63.6920   88.6092   15.3864 N.am    1  UNL1       -0.2681
      5 H          64.1044   91.1197   16.5027 H       1  UNL1        0.1564
      6 H          63.1192   88.7378   16.1767 H       1  UNL1        0.1564
      7 C          66.3821   93.7895   13.4736 C.ar    1  UNL1        0.0769
      8 C          67.4638   94.2698   14.3953 C.ar    1  UNL1        0.0065
      9 C          67.6165   93.6571   15.7559 C.ar    1  UNL1        0.0015
     10 C          66.6876   92.5642   16.1949 C.ar    1  UNL1        0.0147
     11 C          65.6060   92.0840   15.2733 C.ar    1  UNL1        0.0518
     12 C          65.4532   92.6965   13.9127 C.ar    1  UNL1        0.0211
     13 C          66.2293   94.4021   12.1130 C.2     1  UNL1        0.3412
     14 O          66.1168   95.8909   11.9692 O.2     1  UNL1       -0.2449
     15 O          66.1891   93.5259   10.8961 O.3     1  UNL1       -0.4454
     16 C          67.9796   94.5907    9.3437 C.3     1  UNL1        0.0513
     17 C          66.5861   94.0795    9.5598 C.3     1  UNL1        0.2089
     18 C          63.6358   87.3202   14.6213 C.ar    1  UNL1        0.0516
     19 C          64.0417   86.0368   15.2832 C.ar    1  UNL1        0.0147
     20 C          63.9854   84.7479   14.5182 C.ar    1  UNL1        0.0010
     21 C          63.5233   84.7423   13.0911 C.ar    1  UNL1       -0.0014
     22 C          63.1173   86.0256   12.4292 C.ar    1  UNL1        0.0010
     23 C          63.1736   87.3146   13.1943 C.ar    1  UNL1        0.0147
     24 C          63.4670   83.4533   12.3260 C.2     1  UNL1        0.0158
     25 C          64.0975   83.3589   10.9682 C.2     1  UNL1        0.0487
     26 C          64.0412   82.0700   10.2032 C.2     1  UNL1        0.2355
     27 N          63.3546   80.8752   10.7959 N.2     1  UNL1       -0.0325
     28 C          62.7241   80.9696   12.1537 C.2     1  UNL1        0.3799
     29 N          61.9836   79.9671   12.9883 N.2     1  UNL1       -0.0106
     30 C          61.5821   80.6366   14.2692 C.2     1  UNL1        0.3351
     31 N          62.0745   82.0528   14.2262 N.2     1  UNL1       -0.2103
     32 C          62.7804   82.2586   12.9188 C.3     1  UNL1        0.2404
@<TRIPOS>BOND
     1    16    17    1
     2    17    15    1
     3    15    13    1
     4    13    14    2
     5    13     7    1
     6     7     8   ar
     7     8     9   ar
     8     9    10   ar
     9    10    11   ar
    10    11     1    1
    11     1     2   am
    12     2     3    2
    13     2     4   am
    14     4    18    1
    15    18    19   ar
    16    19    20   ar
    17    20    21   ar
    18    21    24    1
    19    24    25    2
    20    25    26    1
    21    26    27    2
    22    27    28    1
    23    28    29    2
    24    29    30    1
    25    30    31    2
    26    31    32    1
    27    21    22   ar
    28    22    23   ar
    29    11    12   ar
    30    12     7   ar
    31    23    18   ar
    32    32    24    1
    33    32    28    1
    34     1     5    1
    35     4     6    1
