@<TRIPOS>MOLECULE
*****
 30 33 0 0 0
SMALL
GASTEIGER

@<TRIPOS>ATOM
      1 N          61.9978   87.9111   11.0169 N.3     1  UNL1       -0.2641
      2 C          62.7102   89.2227   11.1662 C.3     1  UNL1        0.0981
      3 C          62.6897   90.2192   10.0453 C.3     1  UNL1        0.0224
      4 C          63.4021   91.5307   10.1946 C.3     1  UNL1        0.0065
      5 C          64.1349   91.8458   11.4649 C.3     1  UNL1        0.0277
      6 C          64.1554   90.8493   12.5858 C.ar    1  UNL1       -0.0073
      7 C          64.8883   91.1643   13.8562 C.ar    1  UNL1       -0.0015
      8 C          64.9087   90.1679   14.9771 C.ar    1  UNL1        0.0203
      9 C          64.1963   88.8563   14.8278 C.ar    1  UNL1        0.0985
     10 N          63.4635   88.5412   13.5575 N.ar    1  UNL1       -0.2471
     11 C          63.4430   89.5377   12.4365 C.ar    1  UNL1        0.0695
     12 C          60.5118   87.8387   11.2078 C.3     1  UNL1        0.0989
     13 C          59.9616   88.0815    8.6802 C.2     1  UNL1       -0.0125
     14 C          59.6187   87.5458   10.0387 C.2     1  UNL1       -0.0120
     15 N          58.3286   86.4856    7.4407 N.3     1  UNL1       -0.3175
     16 C          59.0686   87.7885    7.5112 C.3     1  UNL1        0.0916
     17 H          57.7736   86.4557    6.5854 H       1  UNL1        0.1192
     18 H          57.7123   86.4005    8.2490 H       1  UNL1        0.1192
     19 C          62.7714   86.6719   10.6766 C.3     1  UNL1        0.0888
     20 C          62.7419   85.4916   11.6019 C.3     1  UNL1        0.0748
     21 C          62.7798   84.0999   11.0437 C.3     1  UNL1        0.0432
     22 C          62.7504   82.9196   11.9689 C.ar    1  UNL1       -0.0234
     23 C          62.7883   81.5278   11.4107 C.ar    1  UNL1       -0.0045
     24 C          62.7588   80.3476   12.3360 C.ar    1  UNL1       -0.0003
     25 C          62.6915   80.5591   13.8195 C.ar    1  UNL1       -0.0003
     26 C          62.6536   81.9508   14.3777 C.ar    1  UNL1       -0.0032
     27 C          62.6830   83.1311   13.4524 C.ar    1  UNL1       -0.0103
     28 C          62.6452   84.5229   14.0106 C.3     1  UNL1        0.0953
     29 N          62.6746   85.7031   13.0854 N.3     1  UNL1       -0.2934
     30 H          63.4917   86.2574   13.3411 H       1  UNL1        0.1236
@<TRIPOS>BOND
     1    15    16    1
     2    16    13    1
     3    13    14    2
     4    14    12    1
     5    12     1    1
     6     1    19    1
     7    20    19    1
     8    20    21    1
     9    21    22    1
    10    22    23   ar
    11    23    24   ar
    12    24    25   ar
    13    25    26   ar
    14    26    27   ar
    15    27    28    1
    16    28    29    1
    17     2     1    1
    18     2     3    1
    19     3     4    1
    20     4     5    1
    21     5     6    1
    22     6     7   ar
    23     7     8   ar
    24     8     9   ar
    25     9    10   ar
    26    10    11   ar
    27    29    20    1
    28    11     2    1
    29    27    22   ar
    30    11     6   ar
    31    15    17    1
    32    15    18    1
    33    29    30    1
@<TRIPOS>MOLECULE
*****
 30 33 0 0 0
SMALL
GASTEIGER

@<TRIPOS>ATOM
      1 N          61.5745   87.6042   11.2347 N.3     1  UNL1       -0.2641
      2 C          62.2206   86.4259   10.5680 C.3     1  UNL1        0.0981
      3 C          62.4886   86.4530    9.0925 C.3     1  UNL1        0.0224
      4 C          63.1347   85.2748    8.4258 C.3     1  UNL1        0.0065
      5 C          63.5127   84.0695    9.2347 C.3     1  UNL1        0.0277
      6 C          63.2446   84.0425   10.7103 C.ar    1  UNL1       -0.0073
      7 C          63.6226   82.8371   11.5193 C.ar    1  UNL1       -0.0015
      8 C          63.3545   82.8101   12.9949 C.ar    1  UNL1        0.0203
      9 C          62.7084   83.9883   13.6615 C.ar    1  UNL1        0.0985
     10 N          62.3305   85.1936   12.8526 N.ar    1  UNL1       -0.2471
     11 C          62.5985   85.2207   11.3770 C.ar    1  UNL1        0.0695
     12 C          60.1784   88.0052   10.8605 C.3     1  UNL1        0.0989
     13 C          59.8977   89.0851    8.5142 C.2     1  UNL1       -0.0125
     14 C          59.7283   87.9113    9.4326 C.2     1  UNL1       -0.0120
     15 N          59.6878   90.1362    6.1475 N.3     1  UNL1       -0.3175
     16 C          59.4477   88.9912    7.0864 C.3     1  UNL1        0.0916
     17 H          59.3202   89.9024    5.2252 H       1  UNL1        0.1192
     18 H          60.6896   90.3152    6.0788 H       1  UNL1        0.1192
     19 C          62.3245   88.3813   12.2755 C.3     1  UNL1        0.0888
     20 C          63.0658   89.6276   11.8916 C.3     1  UNL1        0.0748
     21 C          63.9843   90.2875   12.8770 C.3     1  UNL1        0.0432
     22 C          64.7256   91.5338   12.4931 C.ar    1  UNL1       -0.0234
     23 C          65.6440   92.1937   13.4785 C.ar    1  UNL1       -0.0045
     24 C          66.3853   93.4399   13.0946 C.ar    1  UNL1       -0.0003
     25 C          66.2081   94.0262   11.7253 C.ar    1  UNL1       -0.0003
     26 C          65.2897   93.3663   10.7399 C.ar    1  UNL1       -0.0032
     27 C          64.5484   92.1201   11.1239 C.ar    1  UNL1       -0.0103
     28 C          63.6299   91.4601   10.1385 C.3     1  UNL1        0.0953
     29 N          62.8887   90.2139   10.5224 N.3     1  UNL1       -0.2934
     30 H          63.1612   89.4919    9.8554 H       1  UNL1        0.1236
@<TRIPOS>BOND
     1    15    16    1
     2    16    13    1
     3    13    14    2
     4    14    12    1
     5    12     1    1
     6     1    19    1
     7    20    19    1
     8    20    21    1
     9    21    22    1
    10    22    23   ar
    11    23    24   ar
    12    24    25   ar
    13    25    26   ar
    14    26    27   ar
    15    27    28    1
    16    28    29    1
    17     2     1    1
    18     2     3    1
    19     3     4    1
    20     4     5    1
    21     5     6    1
    22     6     7   ar
    23     7     8   ar
    24     8     9   ar
    25     9    10   ar
    26    10    11   ar
    27    29    20    1
    28    11     2    1
    29    27    22   ar
    30    11     6   ar
    31    15    17    1
    32    15    18    1
    33    29    30    1
@<TRIPOS>MOLECULE
*****
 30 33 0 0 0
SMALL
GASTEIGER

@<TRIPOS>ATOM
      1 N          63.5693   88.7480   13.9852 N.3     1  UNL1       -0.2641
      2 C          63.3289   89.4243   12.6681 C.3     1  UNL1        0.0981
      3 C          63.9781   90.7439   12.3731 C.3     1  UNL1        0.0224
      4 C          63.7377   91.4203   11.0559 C.3     1  UNL1        0.0065
      5 C          62.8482   90.7769   10.0338 C.3     1  UNL1        0.0277
      6 C          62.1990   89.4573   10.3288 C.ar    1  UNL1       -0.0073
      7 C          61.3094   88.8139    9.3067 C.ar    1  UNL1       -0.0015
      8 C          60.6602   87.4943    9.6017 C.ar    1  UNL1        0.0203
      9 C          60.9006   86.8179   10.9188 C.ar    1  UNL1        0.0985
     10 N          61.7901   87.4613   11.9409 N.ar    1  UNL1       -0.2471
     11 C          62.4394   88.7810   11.6459 C.ar    1  UNL1        0.0695
     12 C          62.9374   89.2900   15.2330 C.3     1  UNL1        0.0989
     13 C          64.7767   91.1195   15.3743 C.2     1  UNL1       -0.0125
     14 C          63.5716   90.4415   15.9555 C.2     1  UNL1       -0.0120
     15 N          64.6905   92.9300   17.2357 N.3     1  UNL1       -0.3175
     16 C          65.4108   92.2710   16.0969 C.3     1  UNL1        0.0916
     17 H          65.2633   93.6879   17.6072 H       1  UNL1        0.1192
     18 H          64.5163   92.2440   17.9703 H       1  UNL1        0.1192
     19 C          64.4415   87.5297   14.0546 C.3     1  UNL1        0.0888
     20 C          63.8214   86.1692   14.1763 C.3     1  UNL1        0.0748
     21 C          63.7939   85.2488   12.9922 C.3     1  UNL1        0.0432
     22 C          63.1738   83.8884   13.1139 C.ar    1  UNL1       -0.0234
     23 C          63.1463   82.9680   11.9299 C.ar    1  UNL1       -0.0045
     24 C          62.5263   81.6077   12.0516 C.ar    1  UNL1       -0.0003
     25 C          61.9336   81.1677   13.3575 C.ar    1  UNL1       -0.0003
     26 C          61.9611   82.0881   14.5415 C.ar    1  UNL1       -0.0032
     27 C          62.5812   83.4484   14.4198 C.ar    1  UNL1       -0.0103
     28 C          62.6087   84.3689   15.6039 C.3     1  UNL1        0.0953
     29 N          63.2288   85.7293   15.4821 N.3     1  UNL1       -0.2934
     30 H          63.9759   85.7754   16.1750 H       1  UNL1        0.1236
@<TRIPOS>BOND
     1    15    16    1
     2    16    13    1
     3    13    14    2
     4    14    12    1
     5    12     1    1
     6     1    19    1
     7    20    19    1
     8    20    21    1
     9    21    22    1
    10    22    23   ar
    11    23    24   ar
    12    24    25   ar
    13    25    26   ar
    14    26    27   ar
    15    27    28    1
    16    28    29    1
    17     2     1    1
    18     2     3    1
    19     3     4    1
    20     4     5    1
    21     5     6    1
    22     6     7   ar
    23     7     8   ar
    24     8     9   ar
    25     9    10   ar
    26    10    11   ar
    27    29    20    1
    28    11     2    1
    29    27    22   ar
    30    11     6   ar
    31    15    17    1
    32    15    18    1
    33    29    30    1
@<TRIPOS>MOLECULE
*****
 30 33 0 0 0
SMALL
GASTEIGER

@<TRIPOS>ATOM
      1 N          64.0045   90.0237   13.8302 N.3     1  UNL1       -0.2641
      2 C          64.9025   91.2083   14.0314 C.3     1  UNL1        0.0981
      3 C          65.4685   91.4982   15.3899 C.3     1  UNL1        0.0224
      4 C          66.3664   92.6827   15.5911 C.3     1  UNL1        0.0065
      5 C          66.6984   93.5774   14.4338 C.3     1  UNL1        0.0277
      6 C          66.1324   93.2875   13.0753 C.ar    1  UNL1       -0.0073
      7 C          66.4643   94.1821   11.9179 C.ar    1  UNL1       -0.0015
      8 C          65.8983   93.8922   10.5594 C.ar    1  UNL1        0.0203
      9 C          65.0004   92.7076   10.3582 C.ar    1  UNL1        0.0985
     10 N          64.6684   91.8130   11.5155 N.ar    1  UNL1       -0.2471
     11 C          65.2344   92.1029   12.8741 C.ar    1  UNL1        0.0695
     12 C          64.4209   88.6730   14.3324 C.3     1  UNL1        0.0989
     13 C          63.8172   86.6025   15.7809 C.2     1  UNL1       -0.0125
     14 C          63.7500   88.0808   15.5362 C.2     1  UNL1       -0.0120
     15 N          61.6970   86.2921   17.2502 N.3     1  UNL1       -0.3175
     16 C          63.1462   86.0103   16.9847 C.3     1  UNL1        0.0916
     17 H          61.4082   85.8133   18.1032 H       1  UNL1        0.1192
     18 H          61.1365   85.9578   16.4663 H       1  UNL1        0.1192
     19 C          62.6902   90.1898   13.1268 C.3     1  UNL1        0.0888
     20 C          62.2669   89.1979   12.0841 C.3     1  UNL1        0.0748
     21 C          61.3794   89.6298   10.9546 C.3     1  UNL1        0.0432
     22 C          60.9561   88.6379    9.9119 C.ar    1  UNL1       -0.0234
     23 C          60.0686   89.0698    8.7824 C.ar    1  UNL1       -0.0045
     24 C          59.6454   88.0780    7.7398 C.ar    1  UNL1       -0.0003
     25 C          60.1096   86.6543    7.8267 C.ar    1  UNL1       -0.0003
     26 C          60.9971   86.2224    8.9562 C.ar    1  UNL1       -0.0032
     27 C          61.4203   87.2142    9.9988 C.ar    1  UNL1       -0.0103
     28 C          62.3079   86.7824   11.1284 C.3     1  UNL1        0.0953
     29 N          62.7311   87.7742   12.1710 N.3     1  UNL1       -0.2934
     30 H          63.7508   87.7958   12.1601 H       1  UNL1        0.1236
@<TRIPOS>BOND
     1    15    16    1
     2    16    13    1
     3    13    14    2
     4    14    12    1
     5    12     1    1
     6     1    19    1
     7    20    19    1
     8    20    21    1
     9    21    22    1
    10    22    23   ar
    11    23    24   ar
    12    24    25   ar
    13    25    26   ar
    14    26    27   ar
    15    27    28    1
    16    28    29    1
    17     2     1    1
    18     2     3    1
    19     3     4    1
    20     4     5    1
    21     5     6    1
    22     6     7   ar
    23     7     8   ar
    24     8     9   ar
    25     9    10   ar
    26    10    11   ar
    27    29    20    1
    28    11     2    1
    29    27    22   ar
    30    11     6   ar
    31    15    17    1
    32    15    18    1
    33    29    30    1
@<TRIPOS>MOLECULE
*****
 30 33 0 0 0
SMALL
GASTEIGER

@<TRIPOS>ATOM
      1 N          63.0976   89.9258   13.1031 N.3     1  UNL1       -0.2641
      2 C          63.9306   90.9859   12.4456 C.3     1  UNL1        0.0981
      3 C          63.8034   91.2328   10.9716 C.3     1  UNL1        0.0224
      4 C          64.6364   92.2929   10.3140 C.3     1  UNL1        0.0065
      5 C          65.5967   93.1060   11.1305 C.3     1  UNL1        0.0277
      6 C          65.7239   92.8591   12.6046 C.ar    1  UNL1       -0.0073
      7 C          66.6842   93.6722   13.4211 C.ar    1  UNL1       -0.0015
      8 C          66.8114   93.4252   14.8952 C.ar    1  UNL1        0.0203
      9 C          65.9784   92.3652   15.5527 C.ar    1  UNL1        0.0985
     10 N          65.0181   91.5521   14.7362 N.ar    1  UNL1       -0.2471
     11 C          64.8909   91.7990   13.2621 C.ar    1  UNL1        0.0695
     12 C          63.6938   89.0595   14.1726 C.3     1  UNL1        0.0989
     13 C          64.4105   86.6851   14.9465 C.2     1  UNL1       -0.0125
     14 C          64.1477   87.6679   13.8443 C.2     1  UNL1       -0.0120
     15 N          66.3294   84.9762   14.5621 N.3     1  UNL1       -0.3175
     16 C          64.8644   85.2937   14.6181 C.3     1  UNL1        0.0916
     17 H          66.4552   83.9917   14.3270 H       1  UNL1        0.1192
     18 H          66.7533   85.1658   15.4702 H       1  UNL1        0.1192
     19 C          61.6684   89.7322   12.6912 C.3     1  UNL1        0.0888
     20 C          61.3436   88.9404   11.4592 C.3     1  UNL1        0.0748
     21 C          62.2593   87.8399   11.0119 C.3     1  UNL1        0.0432
     22 C          61.9346   87.0481    9.7799 C.ar    1  UNL1       -0.0234
     23 C          62.8503   85.9475    9.3326 C.ar    1  UNL1       -0.0045
     24 C          62.5255   85.1559    8.1007 C.ar    1  UNL1       -0.0003
     25 C          61.2850   85.4648    7.3160 C.ar    1  UNL1       -0.0003
     26 C          60.3693   86.5653    7.7633 C.ar    1  UNL1       -0.0032
     27 C          60.6941   87.3570    8.9952 C.ar    1  UNL1       -0.0103
     28 C          59.7783   88.4577    9.4426 C.3     1  UNL1        0.0953
     29 N          60.1031   89.2494   10.6745 N.3     1  UNL1       -0.2934
     30 H          59.3154   89.1372   11.3128 H       1  UNL1        0.1236
@<TRIPOS>BOND
     1    15    16    1
     2    16    13    1
     3    13    14    2
     4    14    12    1
     5    12     1    1
     6     1    19    1
     7    20    19    1
     8    20    21    1
     9    21    22    1
    10    22    23   ar
    11    23    24   ar
    12    24    25   ar
    13    25    26   ar
    14    26    27   ar
    15    27    28    1
    16    28    29    1
    17     2     1    1
    18     2     3    1
    19     3     4    1
    20     4     5    1
    21     5     6    1
    22     6     7   ar
    23     7     8   ar
    24     8     9   ar
    25     9    10   ar
    26    10    11   ar
    27    29    20    1
    28    11     2    1
    29    27    22   ar
    30    11     6   ar
    31    15    17    1
    32    15    18    1
    33    29    30    1
@<TRIPOS>MOLECULE
*****
 30 33 0 0 0
SMALL
GASTEIGER

@<TRIPOS>ATOM
      1 N          63.7316   90.2494   13.2697 N.3     1  UNL1       -0.2641
      2 C          64.5877   91.3768   12.7736 C.3     1  UNL1        0.0981
      3 C          64.5237   91.7893   11.3329 C.3     1  UNL1        0.0224
      4 C          65.3797   92.9167   10.8367 C.3     1  UNL1        0.0065
      5 C          66.2998   93.6316   11.7813 C.3     1  UNL1        0.0277
      6 C          66.3638   93.2192   13.2221 C.ar    1  UNL1       -0.0073
      7 C          67.2839   93.9341   14.1668 C.ar    1  UNL1       -0.0015
      8 C          67.3479   93.5216   15.6075 C.ar    1  UNL1        0.0203
      9 C          66.4918   92.3942   16.1036 C.ar    1  UNL1        0.0985
     10 N          65.5718   91.6793   15.1590 N.ar    1  UNL1       -0.2471
     11 C          65.5077   92.0917   13.7182 C.ar    1  UNL1        0.0695
     12 C          64.2917   89.2542   14.2422 C.3     1  UNL1        0.0989
     13 C          63.5364   87.6280   16.1224 C.2     1  UNL1       -0.0125
     14 C          63.5999   89.0135   15.5512 C.2     1  UNL1       -0.0120
     15 N          62.0202   86.1495   17.6276 N.3     1  UNL1       -0.3175
     16 C          62.8446   87.3873   17.4313 C.3     1  UNL1        0.0916
     17 H          61.6263   86.1490   18.5684 H       1  UNL1        0.1192
     18 H          62.6092   85.3258   17.5051 H       1  UNL1        0.1192
     19 C          62.3155   90.1172   12.7933 C.3     1  UNL1        0.0888
     20 C          61.9609   89.0744   11.7750 C.3     1  UNL1        0.0748
     21 C          61.0376   89.4150   10.6430 C.3     1  UNL1        0.0432
     22 C          60.6831   88.3722    9.6246 C.ar    1  UNL1       -0.0234
     23 C          59.7598   88.7127    8.4926 C.ar    1  UNL1       -0.0045
     24 C          59.4053   87.6700    7.4743 C.ar    1  UNL1       -0.0003
     25 C          59.9741   86.2867    7.5880 C.ar    1  UNL1       -0.0003
     26 C          60.8974   85.9461    8.7200 C.ar    1  UNL1       -0.0032
     27 C          61.2519   86.9889    9.7383 C.ar    1  UNL1       -0.0103
     28 C          62.1753   86.6484   10.8704 C.3     1  UNL1        0.0953
     29 N          62.5298   87.6911   11.8887 N.3     1  UNL1       -0.2934
     30 H          63.5450   87.7878   11.8700 H       1  UNL1        0.1236
@<TRIPOS>BOND
     1    15    16    1
     2    16    13    1
     3    13    14    2
     4    14    12    1
     5    12     1    1
     6     1    19    1
     7    20    19    1
     8    20    21    1
     9    21    22    1
    10    22    23   ar
    11    23    24   ar
    12    24    25   ar
    13    25    26   ar
    14    26    27   ar
    15    27    28    1
    16    28    29    1
    17     2     1    1
    18     2     3    1
    19     3     4    1
    20     4     5    1
    21     5     6    1
    22     6     7   ar
    23     7     8   ar
    24     8     9   ar
    25     9    10   ar
    26    10    11   ar
    27    29    20    1
    28    11     2    1
    29    27    22   ar
    30    11     6   ar
    31    15    17    1
    32    15    18    1
    33    29    30    1
@<TRIPOS>MOLECULE
*****
 30 33 0 0 0
SMALL
GASTEIGER

@<TRIPOS>ATOM
      1 N          62.2169   87.8570   11.7084 N.3     1  UNL1       -0.2641
      2 C          63.1372   88.7394   12.4985 C.3     1  UNL1        0.0981
      3 C          63.5905   88.3180   13.8649 C.3     1  UNL1        0.0224
      4 C          64.5108   89.2004   14.6551 C.3     1  UNL1        0.0065
      5 C          64.9780   90.5041   14.0789 C.3     1  UNL1        0.0277
      6 C          64.5248   90.9254   12.7125 C.ar    1  UNL1       -0.0073
      7 C          64.9919   92.2292   12.1362 C.ar    1  UNL1       -0.0015
      8 C          64.5387   92.6506   10.7698 C.ar    1  UNL1        0.0203
      9 C          63.6183   91.7682    9.9797 C.ar    1  UNL1        0.0985
     10 N          63.1512   90.4645   10.5559 N.ar    1  UNL1       -0.2471
     11 C          63.6044   90.0431   11.9223 C.ar    1  UNL1        0.0695
     12 C          60.7818   88.2496   11.5178 C.3     1  UNL1        0.0989
     13 C          60.2437   88.4245    8.9821 C.2     1  UNL1       -0.0125
     14 C          60.0264   87.7697   10.3140 C.2     1  UNL1       -0.0120
     15 N          58.5417   86.7872    7.8991 N.3     1  UNL1       -0.3175
     16 C          59.4883   87.9446    7.7783 C.3     1  UNL1        0.0916
     17 H          58.1184   86.5980    6.9906 H       1  UNL1        0.1192
     18 H          57.8114   87.0143    8.5739 H       1  UNL1        0.1192
     19 C          62.7316   86.5821   11.1088 C.3     1  UNL1        0.0888
     20 C          62.6425   85.2999   11.8822 C.3     1  UNL1        0.0748
     21 C          62.8122   83.9862   11.1785 C.3     1  UNL1        0.0432
     22 C          62.7231   82.7040   11.9520 C.ar    1  UNL1       -0.0234
     23 C          62.8928   81.3903   11.2483 C.ar    1  UNL1       -0.0045
     24 C          62.8037   80.1082   12.0217 C.ar    1  UNL1       -0.0003
     25 C          62.5449   80.1398   13.4989 C.ar    1  UNL1       -0.0003
     26 C          62.3752   81.4536   14.2026 C.ar    1  UNL1       -0.0032
     27 C          62.4643   82.7357   13.4292 C.ar    1  UNL1       -0.0103
     28 C          62.2947   84.0495   14.1329 C.3     1  UNL1        0.0953
     29 N          62.3837   85.3316   13.3594 N.3     1  UNL1       -0.2934
     30 H          63.1371   85.8766   13.7787 H       1  UNL1        0.1236
@<TRIPOS>BOND
     1    15    16    1
     2    16    13    1
     3    13    14    2
     4    14    12    1
     5    12     1    1
     6     1    19    1
     7    20    19    1
     8    20    21    1
     9    21    22    1
    10    22    23   ar
    11    23    24   ar
    12    24    25   ar
    13    25    26   ar
    14    26    27   ar
    15    27    28    1
    16    28    29    1
    17     2     1    1
    18     2     3    1
    19     3     4    1
    20     4     5    1
    21     5     6    1
    22     6     7   ar
    23     7     8   ar
    24     8     9   ar
    25     9    10   ar
    26    10    11   ar
    27    29    20    1
    28    11     2    1
    29    27    22   ar
    30    11     6   ar
    31    15    17    1
    32    15    18    1
    33    29    30    1
@<TRIPOS>MOLECULE
*****
 30 33 0 0 0
SMALL
GASTEIGER

@<TRIPOS>ATOM
      1 N          61.8819   88.0149   11.0021 N.3     1  UNL1       -0.2641
      2 C          62.3316   86.7311   10.3699 C.3     1  UNL1        0.0981
      3 C          62.5249   86.6540    8.8844 C.3     1  UNL1        0.0224
      4 C          62.9747   85.3703    8.2522 C.3     1  UNL1        0.0065
      5 C          63.2311   84.1636    9.1054 C.3     1  UNL1        0.0277
      6 C          63.0378   84.2406   10.5909 C.ar    1  UNL1       -0.0073
      7 C          63.2942   83.0339   11.4442 C.ar    1  UNL1       -0.0015
      8 C          63.1009   83.1110   12.9297 C.ar    1  UNL1        0.0203
      9 C          62.6511   84.3947   13.5619 C.ar    1  UNL1        0.0985
     10 N          62.3947   85.6014   12.7087 N.ar    1  UNL1       -0.2471
     11 C          62.5880   85.5244   11.2231 C.ar    1  UNL1        0.0695
     12 C          60.8051   88.8333   10.3536 C.3     1  UNL1        0.0989
     13 C          59.2833   88.6049   12.4469 C.2     1  UNL1       -0.0125
     14 C          59.6240   89.2909   11.1573 C.2     1  UNL1       -0.0120
     15 N          56.7582   88.4328   13.0336 N.3     1  UNL1       -0.3175
     16 C          58.1023   89.0624   13.2506 C.3     1  UNL1        0.0916
     17 H          56.0767   88.8619   13.6597 H       1  UNL1        0.1192
     18 H          56.8157   87.4331   13.2275 H       1  UNL1        0.1192
     19 C          62.5089   88.4802   12.2828 C.3     1  UNL1        0.0888
     20 C          63.3557   89.7183   12.2968 C.3     1  UNL1        0.0748
     21 C          64.0941   90.1078   13.5430 C.3     1  UNL1        0.0432
     22 C          64.9409   91.3459   13.5570 C.ar    1  UNL1       -0.0234
     23 C          65.6793   91.7355   14.8031 C.ar    1  UNL1       -0.0045
     24 C          66.5260   92.9736   14.8171 C.ar    1  UNL1       -0.0003
     25 C          66.6343   93.8220   13.5849 C.ar    1  UNL1       -0.0003
     26 C          65.8960   93.4325   12.3387 C.ar    1  UNL1       -0.0032
     27 C          65.0492   92.1944   12.3248 C.ar    1  UNL1       -0.0103
     28 C          64.3108   91.8048   11.0785 C.3     1  UNL1        0.0953
     29 N          63.4641   90.5668   11.0646 N.3     1  UNL1       -0.2934
     30 H          63.8313   89.9672   10.3256 H       1  UNL1        0.1236
@<TRIPOS>BOND
     1    15    16    1
     2    16    13    1
     3    13    14    2
     4    14    12    1
     5    12     1    1
     6     1    19    1
     7    20    19    1
     8    20    21    1
     9    21    22    1
    10    22    23   ar
    11    23    24   ar
    12    24    25   ar
    13    25    26   ar
    14    26    27   ar
    15    27    28    1
    16    28    29    1
    17     2     1    1
    18     2     3    1
    19     3     4    1
    20     4     5    1
    21     5     6    1
    22     6     7   ar
    23     7     8   ar
    24     8     9   ar
    25     9    10   ar
    26    10    11   ar
    27    29    20    1
    28    11     2    1
    29    27    22   ar
    30    11     6   ar
    31    15    17    1
    32    15    18    1
    33    29    30    1
@<TRIPOS>MOLECULE
*****
 30 33 0 0 0
SMALL
GASTEIGER

@<TRIPOS>ATOM
      1 N          62.0278   88.3544   11.4794 N.3     1  UNL1       -0.2641
      2 C          62.3708   86.9025   11.6345 C.3     1  UNL1        0.0981
      3 C          61.8476   85.8989   10.6501 C.3     1  UNL1        0.0224
      4 C          62.1906   84.4469   10.8052 C.3     1  UNL1        0.0065
      5 C          63.0568   83.9985   11.9447 C.3     1  UNL1        0.0277
      6 C          63.5800   85.0020   12.9291 C.ar    1  UNL1       -0.0073
      7 C          64.4463   84.5536   14.0687 C.ar    1  UNL1       -0.0015
      8 C          64.9695   85.5572   15.0531 C.ar    1  UNL1        0.0203
      9 C          64.6265   87.0092   14.8980 C.ar    1  UNL1        0.0985
     10 N          63.7602   87.4576   13.7585 N.ar    1  UNL1       -0.2471
     11 C          63.2370   86.4540   12.7740 C.ar    1  UNL1        0.0695
     12 C          61.9963   88.9760   10.1146 C.3     1  UNL1        0.0989
     13 C          60.5556   87.9009    8.2389 C.2     1  UNL1       -0.0125
     14 C          60.7347   88.9418    9.3038 C.2     1  UNL1       -0.0120
     15 N          58.2668   86.8040    7.6837 N.3     1  UNL1       -0.3175
     16 C          59.2941   87.8667    7.4281 C.3     1  UNL1        0.0916
     17 H          57.4803   86.9312    7.0468 H       1  UNL1        0.1192
     18 H          57.9388   86.8728    8.6470 H       1  UNL1        0.1192
     19 C          61.7162   89.1849   12.6890 C.3     1  UNL1        0.0888
     20 C          62.7864   90.0292   13.3151 C.3     1  UNL1        0.0748
     21 C          63.7093   90.8341   12.4489 C.3     1  UNL1        0.0432
     22 C          64.7795   91.6784   13.0750 C.ar    1  UNL1       -0.0234
     23 C          65.7025   92.4833   12.2088 C.ar    1  UNL1       -0.0045
     24 C          66.7726   93.3275   12.8349 C.ar    1  UNL1       -0.0003
     25 C          66.9198   93.3669   14.3272 C.ar    1  UNL1       -0.0003
     26 C          65.9968   92.5620   15.1933 C.ar    1  UNL1       -0.0032
     27 C          64.9267   91.7178   14.5673 C.ar    1  UNL1       -0.0103
     28 C          64.0037   90.9128   15.4334 C.3     1  UNL1        0.0953
     29 N          62.9336   90.0686   14.8073 N.3     1  UNL1       -0.2934
     30 H          62.0433   90.3957   15.1825 H       1  UNL1        0.1236
@<TRIPOS>BOND
     1    15    16    1
     2    16    13    1
     3    13    14    2
     4    14    12    1
     5    12     1    1
     6     1    19    1
     7    20    19    1
     8    20    21    1
     9    21    22    1
    10    22    23   ar
    11    23    24   ar
    12    24    25   ar
    13    25    26   ar
    14    26    27   ar
    15    27    28    1
    16    28    29    1
    17     2     1    1
    18     2     3    1
    19     3     4    1
    20     4     5    1
    21     5     6    1
    22     6     7   ar
    23     7     8   ar
    24     8     9   ar
    25     9    10   ar
    26    10    11   ar
    27    29    20    1
    28    11     2    1
    29    27    22   ar
    30    11     6   ar
    31    15    17    1
    32    15    18    1
    33    29    30    1
