@<TRIPOS>MOLECULE
*****
 25 28 0 0 0
SMALL
GASTEIGER

@<TRIPOS>ATOM
      1 N          65.7558   92.5726   12.1430 N.pl3   1  UNL1       -0.2872
      2 O          60.5689   88.0664   11.9428 O.2     1  UNL1       -0.2749
      3 C          61.1271   88.9688   10.8826 C.2     1  UNL1        0.2251
      4 N          62.2843   89.8698   11.1978 N.am    1  UNL1       -0.2794
      5 C          62.8832   89.8683   12.5730 C.3     1  UNL1        0.0951
      6 C          64.0404   90.7692   12.8880 C.3     1  UNL1        0.0416
      7 C          64.5986   91.6717   11.8279 C.3     1  UNL1        0.0807
      8 C          63.9997   91.6732   10.4527 C.3     1  UNL1        0.0416
      9 C          62.8425   90.7723   10.1376 C.3     1  UNL1        0.0951
     10 C          60.5282   88.9704    9.5074 C.3     1  UNL1        0.0767
     11 C          59.9261   88.2272    8.3520 C.3     1  UNL1        0.0096
     12 C          60.0929   89.7161    8.2810 C.3     1  UNL1        0.0096
     13 C          66.2225   93.5760   11.1304 C.ar    1  UNL1        0.0516
     14 C          65.7460   94.9963   11.2072 C.ar    1  UNL1        0.0157
     15 C          66.2127   95.9997   10.1946 C.ar    1  UNL1        0.0127
     16 C          67.1559   95.5829    9.1053 C.ar    1  UNL1        0.0578
     17 CL         67.6226   96.5863    8.0927 Cl      1  UNL1       -0.0822
     18 C          67.6324   94.1627    9.0285 C.ar    1  UNL1        0.0127
     19 C          67.1657   93.1593   10.0410 C.ar    1  UNL1        0.0157
     20 C          66.4462   92.4701   13.4707 C.ar    1  UNL1        0.0710
     21 C          67.8512   91.9503   13.5472 C.ar    1  UNL1        0.0180
     22 C          68.5416   91.8478   14.8749 C.ar    1  UNL1        0.0220
     23 C          67.8272   92.2650   16.1260 C.ar    1  UNL1        0.0990
     24 N          66.4221   92.7848   16.0495 N.ar    1  UNL1       -0.2410
     25 C          65.7317   92.8874   14.7218 C.ar    1  UNL1        0.1136
@<TRIPOS>BOND
     1     2     3    2
     2     3    10    1
     3    10    11    1
     4    11    12    1
     5     3     4   am
     6     4     5    1
     7     5     6    1
     8     6     7    1
     9     7     1    1
    10     1    13    1
    11    13    14   ar
    12    14    15   ar
    13    15    16   ar
    14    16    17    1
    15    16    18   ar
    16    18    19   ar
    17     1    20    1
    18    20    21   ar
    19    21    22   ar
    20    22    23   ar
    21    23    24   ar
    22    24    25   ar
    23     7     8    1
    24     8     9    1
    25    12    10    1
    26     9     4    1
    27    19    13   ar
    28    25    20   ar
@<TRIPOS>MOLECULE
*****
 25 28 0 0 0
SMALL
GASTEIGER

@<TRIPOS>ATOM
      1 N          65.8491   92.9033   11.6559 N.pl3   1  UNL1       -0.2872
      2 O          60.4289   88.7129   12.2149 O.2     1  UNL1       -0.2749
      3 C          61.0784   89.3227   11.0081 C.2     1  UNL1        0.2251
      4 N          62.2711   90.2179   11.1701 N.am    1  UNL1       -0.2794
      5 C          62.8143   90.5033   12.5388 C.3     1  UNL1        0.0951
      6 C          64.0069   91.3984   12.7007 C.3     1  UNL1        0.0416
      7 C          64.6564   92.0081   11.4939 C.3     1  UNL1        0.0807
      8 C          64.1132   91.7228   10.1252 C.3     1  UNL1        0.0416
      9 C          62.9206   90.8276    9.9633 C.3     1  UNL1        0.0951
     10 C          60.5352   89.0373    9.6393 C.3     1  UNL1        0.0767
     11 C          60.1281   88.0539    8.5823 C.3     1  UNL1        0.0096
     12 C          60.0015   89.5263    8.3256 C.3     1  UNL1        0.0096
     13 C          66.7028   92.8002   12.8849 C.ar    1  UNL1        0.0516
     14 C          66.4334   93.6900   14.0621 C.ar    1  UNL1        0.0157
     15 C          67.2872   93.5869   15.2912 C.ar    1  UNL1        0.0127
     16 C          68.4103   92.5940   15.3430 C.ar    1  UNL1        0.0578
     17 CL         69.2640   92.4909   16.5720 Cl      1  UNL1       -0.0822
     18 C          68.6797   91.7042   14.1658 C.ar    1  UNL1        0.0127
     19 C          67.8260   91.8073   12.9368 C.ar    1  UNL1        0.0157
     20 C          66.1880   93.9016   10.5889 C.ar    1  UNL1        0.0710
     21 C          67.2206   93.5702    9.5525 C.ar    1  UNL1        0.0180
     22 C          67.5595   94.5684    8.4855 C.ar    1  UNL1        0.0220
     23 C          66.8659   95.8981    8.4547 C.ar    1  UNL1        0.0990
     24 N          65.8333   96.2295    9.4911 N.ar    1  UNL1       -0.2410
     25 C          65.4944   95.2313   10.5582 C.ar    1  UNL1        0.1136
@<TRIPOS>BOND
     1     2     3    2
     2     3    10    1
     3    10    11    1
     4    11    12    1
     5     3     4   am
     6     4     5    1
     7     5     6    1
     8     6     7    1
     9     7     1    1
    10     1    13    1
    11    13    14   ar
    12    14    15   ar
    13    15    16   ar
    14    16    17    1
    15    16    18   ar
    16    18    19   ar
    17     1    20    1
    18    20    21   ar
    19    21    22   ar
    20    22    23   ar
    21    23    24   ar
    22    24    25   ar
    23     7     8    1
    24     8     9    1
    25    12    10    1
    26     9     4    1
    27    19    13   ar
    28    25    20   ar
@<TRIPOS>MOLECULE
*****
 25 28 0 0 0
SMALL
GASTEIGER

@<TRIPOS>ATOM
      1 N          63.8247   89.7887   13.4328 N.pl3   1  UNL1       -0.2872
      2 O          59.7688   89.8241    7.8831 O.2     1  UNL1       -0.2749
      3 C          60.4479   88.6924    8.5959 C.2     1  UNL1        0.2251
      4 N          61.2921   88.9665    9.8052 N.am    1  UNL1       -0.2794
      5 C          61.4572   90.3723   10.3016 C.3     1  UNL1        0.0951
      6 C          62.3013   90.6463   11.5108 C.3     1  UNL1        0.0416
      7 C          62.9804   89.5146   12.2236 C.3     1  UNL1        0.0807
      8 C          62.8154   88.1089   11.7271 C.3     1  UNL1        0.0416
      9 C          61.9712   87.8348   10.5179 C.3     1  UNL1        0.0951
     10 C          60.2828   87.2866    8.0995 C.3     1  UNL1        0.0767
     11 C          59.4134   86.2010    7.5378 C.3     1  UNL1        0.0096
     12 C          60.8663   85.9373    7.8013 C.3     1  UNL1        0.0096
     13 C          63.6408   88.9711   14.6769 C.ar    1  UNL1        0.0516
     14 C          63.0276   89.5905   15.8977 C.ar    1  UNL1        0.0157
     15 C          62.8438   88.7728   17.1417 C.ar    1  UNL1        0.0127
     16 C          63.2732   87.3358   17.1650 C.ar    1  UNL1        0.0578
     17 CL         63.0893   86.5182   18.4090 Cl      1  UNL1       -0.0822
     18 C          63.8863   86.7164   15.9442 C.ar    1  UNL1        0.0127
     19 C          64.0702   87.5340   14.7001 C.ar    1  UNL1        0.0157
     20 C          64.8527   90.8805   13.3980 C.ar    1  UNL1        0.0710
     21 C          65.8998   90.9592   14.4691 C.ar    1  UNL1        0.0180
     22 C          66.9278   92.0510   14.4343 C.ar    1  UNL1        0.0220
     23 C          66.9088   93.0640   13.3283 C.ar    1  UNL1        0.0990
     24 N          65.8617   92.9854   12.2570 N.ar    1  UNL1       -0.2410
     25 C          64.8336   91.8936   12.2919 C.ar    1  UNL1        0.1136
@<TRIPOS>BOND
     1     2     3    2
     2     3    10    1
     3    10    11    1
     4    11    12    1
     5     3     4   am
     6     4     5    1
     7     5     6    1
     8     6     7    1
     9     7     1    1
    10     1    13    1
    11    13    14   ar
    12    14    15   ar
    13    15    16   ar
    14    16    17    1
    15    16    18   ar
    16    18    19   ar
    17     1    20    1
    18    20    21   ar
    19    21    22   ar
    20    22    23   ar
    21    23    24   ar
    22    24    25   ar
    23     7     8    1
    24     8     9    1
    25    12    10    1
    26     9     4    1
    27    19    13   ar
    28    25    20   ar
@<TRIPOS>MOLECULE
*****
 25 28 0 0 0
SMALL
GASTEIGER

@<TRIPOS>ATOM
      1 N          63.1121   88.9582   12.4601 N.pl3   1  UNL1       -0.2872
      2 O          64.5930   82.9444   15.4420 O.2     1  UNL1       -0.2749
      3 C          63.8505   83.2565   14.1765 C.2     1  UNL1        0.2251
      4 N          63.6659   84.6820   13.7474 N.am    1  UNL1       -0.2794
      5 C          64.2238   85.7952   14.5838 C.3     1  UNL1        0.0951
      6 C          64.0392   87.2206   14.1546 C.3     1  UNL1        0.0416
      7 C          63.2967   87.5328   12.8892 C.3     1  UNL1        0.0807
      8 C          62.7388   86.4195   12.0529 C.3     1  UNL1        0.0416
      9 C          62.9234   84.9942   12.4820 C.3     1  UNL1        0.0951
     10 C          63.2926   82.1433   13.3402 C.3     1  UNL1        0.0767
     11 C          62.4987   80.8757   13.2273 C.3     1  UNL1        0.0096
     12 C          63.1203   81.4827   12.0046 C.3     1  UNL1        0.0096
     13 C          64.0376   90.0216   12.9726 C.ar    1  UNL1        0.0516
     14 C          64.6727   89.8757   14.3237 C.ar    1  UNL1        0.0157
     15 C          65.5982   90.9391   14.8362 C.ar    1  UNL1        0.0127
     16 C          65.8887   92.1484   13.9975 C.ar    1  UNL1        0.0578
     17 CL         66.8142   93.2117   14.5100 Cl      1  UNL1       -0.0822
     18 C          65.2536   92.2943   12.6465 C.ar    1  UNL1        0.0127
     19 C          64.3281   91.2309   12.1340 C.ar    1  UNL1        0.0157
     20 C          62.0020   89.3203   11.5186 C.ar    1  UNL1        0.0710
     21 C          62.1290   89.0131   10.0559 C.ar    1  UNL1        0.0180
     22 C          61.0189   89.3751    9.1143 C.ar    1  UNL1        0.0220
     23 C          59.7817   90.0443    9.6354 C.ar    1  UNL1        0.0990
     24 N          59.6547   90.3515   11.0982 N.ar    1  UNL1       -0.2410
     25 C          60.7648   89.9895   12.0397 C.ar    1  UNL1        0.1136
@<TRIPOS>BOND
     1     2     3    2
     2     3    10    1
     3    10    11    1
     4    11    12    1
     5     3     4   am
     6     4     5    1
     7     5     6    1
     8     6     7    1
     9     7     1    1
    10     1    13    1
    11    13    14   ar
    12    14    15   ar
    13    15    16   ar
    14    16    17    1
    15    16    18   ar
    16    18    19   ar
    17     1    20    1
    18    20    21   ar
    19    21    22   ar
    20    22    23   ar
    21    23    24   ar
    22    24    25   ar
    23     7     8    1
    24     8     9    1
    25    12    10    1
    26     9     4    1
    27    19    13   ar
    28    25    20   ar
@<TRIPOS>MOLECULE
*****
 25 28 0 0 0
SMALL
GASTEIGER

@<TRIPOS>ATOM
      1 N          63.2359   88.8578   12.5320 N.pl3   1  UNL1       -0.2872
      2 O          66.7444   94.7427   13.0870 O.2     1  UNL1       -0.2749
      3 C          66.7461   93.5137   13.9469 C.2     1  UNL1        0.2251
      4 N          65.8685   92.3497   13.5932 N.am    1  UNL1       -0.2794
      5 C          64.9893   92.4148   12.3796 C.3     1  UNL1        0.0951
      6 C          64.1118   91.2509   12.0259 C.3     1  UNL1        0.0416
      7 C          64.1134   90.0218   12.8857 C.3     1  UNL1        0.0807
      8 C          64.9926   89.9567   14.0993 C.3     1  UNL1        0.0416
      9 C          65.8701   91.1206   14.4530 C.3     1  UNL1        0.0951
     10 C          67.6252   93.4485   15.1605 C.3     1  UNL1        0.0767
     11 C          68.6909   94.0522   16.0265 C.3     1  UNL1        0.0096
     12 C          68.0823   92.7321   16.3965 C.3     1  UNL1        0.0096
     13 C          63.4927   87.5121   13.1426 C.ar    1  UNL1        0.0516
     14 C          64.2006   87.4094   14.4611 C.ar    1  UNL1        0.0157
     15 C          64.4574   86.0636   15.0717 C.ar    1  UNL1        0.0127
     16 C          64.0064   84.8204   14.3638 C.ar    1  UNL1        0.0578
     17 CL         64.2632   83.4747   14.9744 Cl      1  UNL1       -0.0822
     18 C          63.2985   84.9231   13.0453 C.ar    1  UNL1        0.0127
     19 C          63.0417   86.2688   12.4347 C.ar    1  UNL1        0.0157
     20 C          62.1015   89.0397   11.5676 C.ar    1  UNL1        0.0710
     21 C          62.2341   88.5563   10.1538 C.ar    1  UNL1        0.0180
     22 C          61.0997   88.7382    9.1894 C.ar    1  UNL1        0.0220
     23 C          59.8327   89.4035    9.6388 C.ar    1  UNL1        0.0990
     24 N          59.6999   89.8869   11.0526 N.ar    1  UNL1       -0.2410
     25 C          60.8343   89.7050   12.0170 C.ar    1  UNL1        0.1136
@<TRIPOS>BOND
     1     2     3    2
     2     3    10    1
     3    10    11    1
     4    11    12    1
     5     3     4   am
     6     4     5    1
     7     5     6    1
     8     6     7    1
     9     7     1    1
    10     1    13    1
    11    13    14   ar
    12    14    15   ar
    13    15    16   ar
    14    16    17    1
    15    16    18   ar
    16    18    19   ar
    17     1    20    1
    18    20    21   ar
    19    21    22   ar
    20    22    23   ar
    21    23    24   ar
    22    24    25   ar
    23     7     8    1
    24     8     9    1
    25    12    10    1
    26     9     4    1
    27    19    13   ar
    28    25    20   ar
@<TRIPOS>MOLECULE
*****
 25 28 0 0 0
SMALL
GASTEIGER

@<TRIPOS>ATOM
      1 N          63.0715   88.7527   12.1268 N.pl3   1  UNL1       -0.2872
      2 O          66.8265   94.0685   14.3387 O.2     1  UNL1       -0.2749
      3 C          66.1829   93.8065   13.0094 C.2     1  UNL1        0.2251
      4 N          65.4050   92.5430   12.7887 N.am    1  UNL1       -0.2794
      5 C          65.2708   91.5416   13.8974 C.3     1  UNL1        0.0951
      6 C          64.4930   90.2782   13.6767 C.3     1  UNL1        0.0416
      7 C          63.8493   90.0162   12.3474 C.3     1  UNL1        0.0807
      8 C          63.9836   91.0176   11.2387 C.3     1  UNL1        0.0416
      9 C          64.7614   92.2810   11.4594 C.3     1  UNL1        0.0951
     10 C          66.3171   94.8079   11.9007 C.3     1  UNL1        0.0767
     11 C          66.0735   96.1845   11.3571 C.3     1  UNL1        0.0096
     12 C          66.7931   95.1657   10.5240 C.3     1  UNL1        0.0096
     13 C          63.4125   87.5165   12.9048 C.ar    1  UNL1        0.0516
     14 C          63.0016   86.1689   12.3897 C.ar    1  UNL1        0.0157
     15 C          63.3427   84.9326   13.1678 C.ar    1  UNL1        0.0127
     16 C          64.0946   85.0439   14.4609 C.ar    1  UNL1        0.0578
     17 CL         64.4357   83.8077   15.2389 Cl      1  UNL1       -0.0822
     18 C          64.5056   86.3915   14.9759 C.ar    1  UNL1        0.0127
     19 C          64.1645   87.6277   14.1979 C.ar    1  UNL1        0.0157
     20 C          61.9526   88.7255   11.1281 C.ar    1  UNL1        0.0710
     21 C          62.0652   87.8737    9.8986 C.ar    1  UNL1        0.0180
     22 C          60.9463   87.8466    8.8999 C.ar    1  UNL1        0.0220
     23 C          59.7148   88.6712    9.1307 C.ar    1  UNL1        0.0990
     24 N          59.6021   89.5231   10.3603 N.ar    1  UNL1       -0.2410
     25 C          60.7210   89.5503   11.3590 C.ar    1  UNL1        0.1136
@<TRIPOS>BOND
     1     2     3    2
     2     3    10    1
     3    10    11    1
     4    11    12    1
     5     3     4   am
     6     4     5    1
     7     5     6    1
     8     6     7    1
     9     7     1    1
    10     1    13    1
    11    13    14   ar
    12    14    15   ar
    13    15    16   ar
    14    16    17    1
    15    16    18   ar
    16    18    19   ar
    17     1    20    1
    18    20    21   ar
    19    21    22   ar
    20    22    23   ar
    21    23    24   ar
    22    24    25   ar
    23     7     8    1
    24     8     9    1
    25    12    10    1
    26     9     4    1
    27    19    13   ar
    28    25    20   ar
@<TRIPOS>MOLECULE
*****
 25 28 0 0 0
SMALL
GASTEIGER

@<TRIPOS>ATOM
      1 N          62.1378   86.6234   10.8711 N.pl3   1  UNL1       -0.2872
      2 O          64.6038   92.9336   12.0331 O.2     1  UNL1       -0.2749
      3 C          64.6203   91.7003   12.8867 C.2     1  UNL1        0.2251
      4 N          63.9997   90.4311   12.3828 N.am    1  UNL1       -0.2794
      5 C          63.3626   90.3952   11.0253 C.3     1  UNL1        0.0951
      6 C          62.7420   89.1260   10.5214 C.3     1  UNL1        0.0416
      7 C          62.7585   87.8926   11.3750 C.3     1  UNL1        0.0807
      8 C          63.3955   87.9285   12.7325 C.3     1  UNL1        0.0416
      9 C          64.0161   89.1978   13.2364 C.3     1  UNL1        0.0951
     10 C          65.2574   91.7362   14.2442 C.3     1  UNL1        0.0767
     11 C          65.1339   91.8552   15.7343 C.3     1  UNL1        0.0096
     12 C          66.4842   91.6794   15.1053 C.3     1  UNL1        0.0096
     13 C          62.5568   85.3034   11.4473 C.ar    1  UNL1        0.0516
     14 C          62.2418   84.9752   12.8767 C.ar    1  UNL1        0.0157
     15 C          62.6608   83.6551   13.4529 C.ar    1  UNL1        0.0127
     16 C          63.3946   82.6633   12.5998 C.ar    1  UNL1        0.0578
     17 CL         63.8135   81.3433   13.1760 Cl      1  UNL1       -0.0822
     18 C          63.7095   82.9916   11.1704 C.ar    1  UNL1        0.0127
     19 C          63.2906   84.3116   10.5942 C.ar    1  UNL1        0.0157
     20 C          61.0983   86.6742    9.7909 C.ar    1  UNL1        0.0710
     21 C          61.3094   85.9214    8.5109 C.ar    1  UNL1        0.0180
     22 C          60.2698   85.9722    7.4307 C.ar    1  UNL1        0.0220
     23 C          59.0192   86.7759    7.6306 C.ar    1  UNL1        0.0990
     24 N          58.8081   87.5288    8.9107 N.ar    1  UNL1       -0.2410
     25 C          59.8476   87.4780    9.9909 C.ar    1  UNL1        0.1136
@<TRIPOS>BOND
     1     2     3    2
     2     3    10    1
     3    10    11    1
     4    11    12    1
     5     3     4   am
     6     4     5    1
     7     5     6    1
     8     6     7    1
     9     7     1    1
    10     1    13    1
    11    13    14   ar
    12    14    15   ar
    13    15    16   ar
    14    16    17    1
    15    16    18   ar
    16    18    19   ar
    17     1    20    1
    18    20    21   ar
    19    21    22   ar
    20    22    23   ar
    21    23    24   ar
    22    24    25   ar
    23     7     8    1
    24     8     9    1
    25    12    10    1
    26     9     4    1
    27    19    13   ar
    28    25    20   ar
@<TRIPOS>MOLECULE
*****
 25 28 0 0 0
SMALL
GASTEIGER

@<TRIPOS>ATOM
      1 N          62.8688   87.2948   12.2179 N.pl3   1  UNL1       -0.2872
      2 O          65.4742   93.6395   12.6728 O.2     1  UNL1       -0.2749
      3 C          65.4968   92.4967   13.6442 C.2     1  UNL1        0.2251
      4 N          64.8398   91.1962   13.2876 N.am    1  UNL1       -0.2794
      5 C          64.1602   91.0385   11.9597 C.3     1  UNL1        0.0951
      6 C          63.5032   89.7381   11.6032 C.3     1  UNL1        0.0416
      7 C          63.5258   88.5953   12.5745 C.3     1  UNL1        0.0807
      8 C          64.2054   88.7529   13.9024 C.3     1  UNL1        0.0416
      9 C          64.8624   90.0534   14.2589 C.3     1  UNL1        0.0951
     10 C          66.1763   92.6544   14.9720 C.3     1  UNL1        0.0767
     11 C          67.3923   93.0108   15.7748 C.3     1  UNL1        0.0096
     12 C          66.1376   92.5710   16.4692 C.3     1  UNL1        0.0096
     13 C          61.9121   87.2293   11.0645 C.ar    1  UNL1        0.0516
     14 C          62.2869   86.4791    9.8208 C.ar    1  UNL1        0.0157
     15 C          61.3301   86.4136    8.6674 C.ar    1  UNL1        0.0127
     16 C          59.9986   87.0983    8.7577 C.ar    1  UNL1        0.0578
     17 CL         59.0419   87.0328    7.6043 Cl      1  UNL1       -0.0822
     18 C          59.6238   87.8485   10.0014 C.ar    1  UNL1        0.0127
     19 C          60.5805   87.9140   11.1548 C.ar    1  UNL1        0.0157
     20 C          63.1686   86.0598   13.0148 C.ar    1  UNL1        0.0710
     21 C          64.1505   86.1179   14.1472 C.ar    1  UNL1        0.0180
     22 C          64.4503   84.8829   14.9440 C.ar    1  UNL1        0.0220
     23 C          63.7681   83.5899   14.6085 C.ar    1  UNL1        0.0990
     24 N          62.7861   83.5317   13.4760 N.ar    1  UNL1       -0.2410
     25 C          62.4863   84.7667   12.6792 C.ar    1  UNL1        0.1136
@<TRIPOS>BOND
     1     2     3    2
     2     3    10    1
     3    10    11    1
     4    11    12    1
     5     3     4   am
     6     4     5    1
     7     5     6    1
     8     6     7    1
     9     7     1    1
    10     1    13    1
    11    13    14   ar
    12    14    15   ar
    13    15    16   ar
    14    16    17    1
    15    16    18   ar
    16    18    19   ar
    17     1    20    1
    18    20    21   ar
    19    21    22   ar
    20    22    23   ar
    21    23    24   ar
    22    24    25   ar
    23     7     8    1
    24     8     9    1
    25    12    10    1
    26     9     4    1
    27    19    13   ar
    28    25    20   ar
@<TRIPOS>MOLECULE
*****
 25 28 0 0 0
SMALL
GASTEIGER

@<TRIPOS>ATOM
      1 N          62.8021   88.1985   11.9009 N.pl3   1  UNL1       -0.2872
      2 O          64.4635   82.5950   15.5190 O.2     1  UNL1       -0.2749
      3 C          63.5552   82.7676   14.3379 C.2     1  UNL1        0.2251
      4 N          63.3669   84.1254   13.7286 N.am    1  UNL1       -0.2794
      5 C          64.0869   85.3105   14.3006 C.3     1  UNL1        0.0951
      6 C          63.8986   86.6681   13.6913 C.3     1  UNL1        0.0416
      7 C          62.9903   86.8408   12.5102 C.3     1  UNL1        0.0807
      8 C          62.2703   85.6557   11.9382 C.3     1  UNL1        0.0416
      9 C          62.4586   84.2980   12.5475 C.3     1  UNL1        0.0951
     10 C          62.8352   81.5826   13.7659 C.3     1  UNL1        0.0767
     11 C          61.6756   80.6313   13.7899 C.3     1  UNL1        0.0096
     12 C          62.7475   80.4813   12.7514 C.3     1  UNL1        0.0096
     13 C          61.8822   88.3738   10.7291 C.ar    1  UNL1        0.0516
     14 C          60.9249   89.5280   10.6932 C.ar    1  UNL1        0.0157
     15 C          60.0050   89.7032    9.5213 C.ar    1  UNL1        0.0127
     16 C          60.0425   88.7243    8.3855 C.ar    1  UNL1        0.0578
     17 CL         59.1227   88.8995    7.2137 Cl      1  UNL1       -0.0822
     18 C          60.9999   87.5701    8.4214 C.ar    1  UNL1        0.0127
     19 C          61.9197   87.3948    9.5932 C.ar    1  UNL1        0.0157
     20 C          63.5337   89.3810   12.4635 C.ar    1  UNL1        0.0710
     21 C          64.0618   89.3379   13.8668 C.ar    1  UNL1        0.0180
     22 C          64.7935   90.5204   14.4294 C.ar    1  UNL1        0.0220
     23 C          64.9969   91.7459   13.5888 C.ar    1  UNL1        0.0990
     24 N          64.4687   91.7890   12.1855 N.ar    1  UNL1       -0.2410
     25 C          63.7371   90.6066   11.6228 C.ar    1  UNL1        0.1136
@<TRIPOS>BOND
     1     2     3    2
     2     3    10    1
     3    10    11    1
     4    11    12    1
     5     3     4   am
     6     4     5    1
     7     5     6    1
     8     6     7    1
     9     7     1    1
    10     1    13    1
    11    13    14   ar
    12    14    15   ar
    13    15    16   ar
    14    16    17    1
    15    16    18   ar
    16    18    19   ar
    17     1    20    1
    18    20    21   ar
    19    21    22   ar
    20    22    23   ar
    21    23    24   ar
    22    24    25   ar
    23     7     8    1
    24     8     9    1
    25    12    10    1
    26     9     4    1
    27    19    13   ar
    28    25    20   ar
