@<TRIPOS>MOLECULE
*****
 32 35 0 0 0
SMALL
GASTEIGER

@<TRIPOS>ATOM
      1 C          61.9750   88.5177   11.4434 C.ar    1  UNL1        0.1789
      2 C          62.9821   87.7383   12.2360 C.ar    1  UNL1        0.0406
      3 C          63.1267   86.2611   12.0192 C.ar    1  UNL1        0.0034
      4 C          62.2640   85.5633   11.0098 C.ar    1  UNL1        0.0039
      5 C          61.2569   86.3426   10.2172 C.ar    1  UNL1        0.0401
      6 C          61.1123   87.8199   10.4340 C.ar    1  UNL1        0.1730
      7 C          62.4085   84.0861   10.7929 C.2     1  UNL1        0.0113
      8 C          62.8975   83.2088   11.9070 C.2     1  UNL1        0.0873
      9 S          63.2782   83.6633   13.2849 S.3     1  UNL1       -0.0254
     10 C          63.7075   82.4583   14.0684 C.2     1  UNL1        0.2832
     11 O          64.1709   82.4534   15.4949 O.2     1  UNL1       -0.2622
     12 N          63.5921   81.2592   13.1747 N.am    1  UNL1       -0.2425
     13 C          63.0915   81.7229   11.8389 C.2     1  UNL1        0.2583
     14 O          62.8306   80.8536   10.6448 O.2     1  UNL1       -0.2692
     15 H          63.8072   80.3307   13.4216 H       1  UNL1        0.1587
     16 O          60.1052   88.5992    9.6414 O.3     1  UNL1       -0.4684
     17 C          59.8004   88.2090    8.2255 C.3     1  UNL1        0.2526
     18 O          61.8304   89.9949   11.6603 O.3     1  UNL1       -0.4504
     19 C          65.4328   92.6755   11.3646 C.ar    1  UNL1        0.0758
     20 C          64.6008   92.4003   10.1473 C.ar    1  UNL1        0.0096
     21 C          63.4000   91.5067   10.2458 C.ar    1  UNL1        0.0377
     22 C          63.0312   90.8884   11.5617 C.ar    1  UNL1        0.1454
     23 C          63.8633   91.1636   12.7791 C.ar    1  UNL1        0.0348
     24 C          63.4945   90.5452   14.0950 C.ar    1  UNL1        0.0030
     25 C          64.3265   90.8204   15.3124 C.ar    1  UNL1        0.0001
     26 C          65.5273   91.7140   15.2138 C.ar    1  UNL1        0.0000
     27 C          65.8961   92.3323   13.8979 C.ar    1  UNL1        0.0003
     28 C          65.0640   92.0571   12.6806 C.ar    1  UNL1        0.0092
     29 C          66.6336   93.5690   11.2660 C.2     1  UNL1        0.3413
     30 O          66.5371   95.0045   11.6906 O.2     1  UNL1       -0.2449
     31 C          68.2072   93.0361    9.2686 C.3     1  UNL1        0.2560
     32 O          67.9307   93.0272   10.7429 O.3     1  UNL1       -0.4413
@<TRIPOS>BOND
     1    31    32    1
     2    32    29    1
     3    29    30    2
     4    29    19    1
     5    19    20   ar
     6    20    21   ar
     7    21    22   ar
     8    22    18    1
     9    18     1    1
    10     1     2   ar
    11     2     3   ar
    12     3     4   ar
    13     4     7    1
    14     7     8    2
    15     8     9    1
    16     9    10    1
    17    10    11    2
    18    10    12   am
    19    12    13   am
    20    13    14    2
    21     4     5   ar
    22     5     6   ar
    23     6    16    1
    24    16    17    1
    25    22    23   ar
    26    23    24   ar
    27    24    25   ar
    28    25    26   ar
    29    26    27   ar
    30    27    28   ar
    31    28    19   ar
    32     6     1   ar
    33    28    23   ar
    34    13     8    1
    35    12    15    1
@<TRIPOS>MOLECULE
*****
 32 35 0 0 0
SMALL
GASTEIGER

@<TRIPOS>ATOM
      1 C          63.8327   88.1960   15.3051 C.ar    1  UNL1        0.1789
      2 C          64.2683   87.5439   14.0263 C.ar    1  UNL1        0.0406
      3 C          64.2780   86.0483   13.9124 C.ar    1  UNL1        0.0034
      4 C          63.8520   85.2047   15.0772 C.ar    1  UNL1        0.0039
      5 C          63.4164   85.8567   16.3559 C.ar    1  UNL1        0.0401
      6 C          63.4067   87.3523   16.4699 C.ar    1  UNL1        0.1730
      7 C          63.8616   83.7091   14.9634 C.2     1  UNL1        0.0113
      8 C          63.8501   83.0598   13.6112 C.2     1  UNL1        0.0873
      9 S          63.8290   83.7720   12.2913 S.3     1  UNL1       -0.0254
     10 C          63.8236   82.7366   11.2059 C.2     1  UNL1        0.2832
     11 O          63.8039   83.0060    9.7305 O.2     1  UNL1       -0.2622
     12 N          63.8414   81.3845   11.8551 N.am    1  UNL1       -0.2425
     13 C          63.8578   81.5841   13.3417 C.2     1  UNL1        0.2583
     14 O          63.8782   80.4989   14.3769 O.2     1  UNL1       -0.2692
     15 H          63.8421   80.5181   11.3876 H       1  UNL1        0.1587
     16 O          62.9711   88.0043   17.7486 O.3     1  UNL1       -0.4684
     17 C          62.6287   87.1617   18.9414 C.3     1  UNL1        0.2526
     18 O          63.8231   89.6916   15.4189 O.3     1  UNL1       -0.4504
     19 C          66.1897   92.1846   12.5148 C.ar    1  UNL1        0.0758
     20 C          66.7242   91.9285   13.8927 C.ar    1  UNL1        0.0096
     21 C          65.9353   91.0975   14.8608 C.ar    1  UNL1        0.0377
     22 C          64.6119   90.5226   14.4509 C.ar    1  UNL1        0.1454
     23 C          64.0774   90.7786   13.0729 C.ar    1  UNL1        0.0348
     24 C          62.7540   90.2037   12.6630 C.ar    1  UNL1        0.0030
     25 C          62.2195   90.4597   11.2851 C.ar    1  UNL1        0.0001
     26 C          63.0084   91.2907   10.3171 C.ar    1  UNL1        0.0000
     27 C          64.3318   91.8656   10.7269 C.ar    1  UNL1        0.0003
     28 C          64.8663   91.6096   12.1049 C.ar    1  UNL1        0.0092
     29 C          66.9786   93.0156   11.5468 C.2     1  UNL1        0.3413
     30 O          66.7505   94.4962   11.4697 O.2     1  UNL1       -0.2449
     31 C          68.2373   92.9042    9.2767 C.3     1  UNL1        0.2560
     32 O          67.9956   92.3660   10.6558 O.3     1  UNL1       -0.4413
@<TRIPOS>BOND
     1    31    32    1
     2    32    29    1
     3    29    30    2
     4    29    19    1
     5    19    20   ar
     6    20    21   ar
     7    21    22   ar
     8    22    18    1
     9    18     1    1
    10     1     2   ar
    11     2     3   ar
    12     3     4   ar
    13     4     7    1
    14     7     8    2
    15     8     9    1
    16     9    10    1
    17    10    11    2
    18    10    12   am
    19    12    13   am
    20    13    14    2
    21     4     5   ar
    22     5     6   ar
    23     6    16    1
    24    16    17    1
    25    22    23   ar
    26    23    24   ar
    27    24    25   ar
    28    25    26   ar
    29    26    27   ar
    30    27    28   ar
    31    28    19   ar
    32     6     1   ar
    33    28    23   ar
    34    13     8    1
    35    12    15    1
@<TRIPOS>MOLECULE
*****
 32 35 0 0 0
SMALL
GASTEIGER

@<TRIPOS>ATOM
      1 C          62.4065   87.9575   11.9464 C.ar    1  UNL1        0.1789
      2 C          61.7666   87.5080   10.6663 C.ar    1  UNL1        0.0406
      3 C          61.9464   86.0959   10.1934 C.ar    1  UNL1        0.0034
      4 C          62.7661   85.1333   11.0005 C.ar    1  UNL1        0.0039
      5 C          63.4060   85.5828   12.2805 C.ar    1  UNL1        0.0401
      6 C          63.2262   86.9949   12.7535 C.ar    1  UNL1        0.1730
      7 C          62.9459   83.7213   10.5276 C.2     1  UNL1        0.0113
      8 C          62.8207   82.5838   11.4974 C.2     1  UNL1        0.0873
      9 S          62.5206   82.7031   12.9622 S.3     1  UNL1       -0.0254
     10 C          62.4880   81.3203   13.5428 C.2     1  UNL1        0.2832
     11 O          62.2222   80.9725   14.9774 O.2     1  UNL1       -0.2622
     12 N          62.7680   80.3465   12.4368 N.am    1  UNL1       -0.2425
     13 C          62.9736   81.1273   11.1726 C.2     1  UNL1        0.2583
     14 O          63.2785   80.5527    9.8211 O.2     1  UNL1       -0.2692
     15 H          62.8095   79.3669   12.5251 H       1  UNL1        0.1587
     16 O          63.8662   87.4443   14.0335 O.3     1  UNL1       -0.4684
     17 C          64.4682   86.4352   14.9657 C.3     1  UNL1        0.2526
     18 O          62.2267   89.3696   12.4193 O.3     1  UNL1       -0.4504
     19 C          65.0923   92.5719   11.0838 C.ar    1  UNL1        0.0758
     20 C          64.1576   91.9417   10.0943 C.ar    1  UNL1        0.0096
     21 C          63.2024   90.8743   10.5394 C.ar    1  UNL1        0.0377
     22 C          63.1819   90.4370   11.9741 C.ar    1  UNL1        0.1454
     23 C          64.1167   91.0672   12.9637 C.ar    1  UNL1        0.0348
     24 C          64.0962   90.6299   14.3984 C.ar    1  UNL1        0.0030
     25 C          65.0310   91.2600   15.3878 C.ar    1  UNL1        0.0001
     26 C          65.9862   92.3274   14.9427 C.ar    1  UNL1        0.0000
     27 C          66.0066   92.7647   13.5080 C.ar    1  UNL1        0.0003
     28 C          65.0719   92.1346   12.5185 C.ar    1  UNL1        0.0092
     29 C          66.0475   93.6393   10.6386 C.2     1  UNL1        0.3413
     30 O          65.5745   95.0552   10.4914 O.2     1  UNL1       -0.2449
     31 C          68.1350   93.8232    9.1029 C.3     1  UNL1        0.2560
     32 O          67.4757   93.2909   10.3406 O.3     1  UNL1       -0.4413
@<TRIPOS>BOND
     1    31    32    1
     2    32    29    1
     3    29    30    2
     4    29    19    1
     5    19    20   ar
     6    20    21   ar
     7    21    22   ar
     8    22    18    1
     9    18     1    1
    10     1     2   ar
    11     2     3   ar
    12     3     4   ar
    13     4     7    1
    14     7     8    2
    15     8     9    1
    16     9    10    1
    17    10    11    2
    18    10    12   am
    19    12    13   am
    20    13    14    2
    21     4     5   ar
    22     5     6   ar
    23     6    16    1
    24    16    17    1
    25    22    23   ar
    26    23    24   ar
    27    24    25   ar
    28    25    26   ar
    29    26    27   ar
    30    27    28   ar
    31    28    19   ar
    32     6     1   ar
    33    28    23   ar
    34    13     8    1
    35    12    15    1
@<TRIPOS>MOLECULE
*****
 32 35 0 0 0
SMALL
GASTEIGER

@<TRIPOS>ATOM
      1 C          62.5123   88.4815   11.5216 C.ar    1  UNL1        0.1789
      2 C          63.1294   87.5155   12.4892 C.ar    1  UNL1        0.0406
      3 C          63.1891   86.0545   12.1551 C.ar    1  UNL1        0.0034
      4 C          62.6317   85.5593   10.8535 C.ar    1  UNL1        0.0039
      5 C          62.0147   86.5252    9.8860 C.ar    1  UNL1        0.0401
      6 C          61.9549   87.9864   10.2200 C.ar    1  UNL1        0.1730
      7 C          62.6915   84.0982   10.5195 C.2     1  UNL1        0.0113
      8 C          62.9799   83.0940   11.5957 C.2     1  UNL1        0.0873
      9 S          63.2283   83.3995   13.0431 S.3     1  UNL1       -0.0254
     10 C          63.4724   82.1022   13.7555 C.2     1  UNL1        0.2832
     11 O          63.7630   81.9406   15.2181 O.2     1  UNL1       -0.2622
     12 N          63.3749   80.9949   12.7483 N.am    1  UNL1       -0.2425
     13 C          63.0705   81.6077   11.4135 C.2     1  UNL1        0.2583
     14 O          62.8886   80.8650   10.1232 O.2     1  UNL1       -0.2692
     15 H          63.4904   80.0344   12.9313 H       1  UNL1        0.1587
     16 O          61.3378   88.9523    9.2524 O.3     1  UNL1       -0.4684
     17 C          60.0053   88.6472    8.6350 C.3     1  UNL1        0.2526
     18 O          62.4525   89.9426   11.8556 O.3     1  UNL1       -0.4504
     19 C          65.4255   91.7168   14.7303 C.ar    1  UNL1        0.0758
     20 C          64.4237   90.7103   15.2135 C.ar    1  UNL1        0.0096
     21 C          63.4327   90.1189   14.2552 C.ar    1  UNL1        0.0377
     22 C          63.4435   90.5340   12.8139 C.ar    1  UNL1        0.1454
     23 C          64.4453   91.5406   12.3307 C.ar    1  UNL1        0.0348
     24 C          64.4561   91.9556   10.8893 C.ar    1  UNL1        0.0030
     25 C          65.4578   92.9621   10.4062 C.ar    1  UNL1        0.0001
     26 C          66.4488   93.5535   11.3644 C.ar    1  UNL1        0.0000
     27 C          66.4380   93.1384   12.8058 C.ar    1  UNL1        0.0003
     28 C          65.4363   92.1320   13.2889 C.ar    1  UNL1        0.0092
     29 C          66.4164   92.3082   15.6886 C.2     1  UNL1        0.3413
     30 O          65.9367   93.0636   16.8925 O.2     1  UNL1       -0.2449
     31 C          68.8208   93.2924   15.6877 C.3     1  UNL1        0.2560
     32 O          67.8870   92.1444   15.4429 O.3     1  UNL1       -0.4413
@<TRIPOS>BOND
     1    31    32    1
     2    32    29    1
     3    29    30    2
     4    29    19    1
     5    19    20   ar
     6    20    21   ar
     7    21    22   ar
     8    22    18    1
     9    18     1    1
    10     1     2   ar
    11     2     3   ar
    12     3     4   ar
    13     4     7    1
    14     7     8    2
    15     8     9    1
    16     9    10    1
    17    10    11    2
    18    10    12   am
    19    12    13   am
    20    13    14    2
    21     4     5   ar
    22     5     6   ar
    23     6    16    1
    24    16    17    1
    25    22    23   ar
    26    23    24   ar
    27    24    25   ar
    28    25    26   ar
    29    26    27   ar
    30    27    28   ar
    31    28    19   ar
    32     6     1   ar
    33    28    23   ar
    34    13     8    1
    35    12    15    1
@<TRIPOS>MOLECULE
*****
 32 35 0 0 0
SMALL
GASTEIGER

@<TRIPOS>ATOM
      1 C          63.4245   88.1551   13.6110 C.ar    1  UNL1        0.1789
      2 C          64.3244   87.6416   14.6958 C.ar    1  UNL1        0.0406
      3 C          64.7631   86.2072   14.6900 C.ar    1  UNL1        0.0034
      4 C          64.3021   85.2863   13.5994 C.ar    1  UNL1        0.0039
      5 C          63.4023   85.7997   12.5146 C.ar    1  UNL1        0.0401
      6 C          62.9635   87.2342   12.5204 C.ar    1  UNL1        0.1730
      7 C          64.7408   83.8519   13.5936 C.2     1  UNL1        0.0113
      8 C          63.7327   82.7585   13.7883 C.2     1  UNL1        0.0873
      9 S          62.2593   82.9449   13.9991 S.3     1  UNL1       -0.0254
     10 C          61.6369   81.5882   14.1474 C.2     1  UNL1        0.2832
     11 O          60.1814   81.3060   14.3749 O.2     1  UNL1       -0.2622
     12 N          62.7256   80.5632   14.0283 N.am    1  UNL1       -0.2425
     13 C          64.0209   81.2864   13.8063 C.2     1  UNL1        0.2583
     14 O          65.3678   80.6496   13.6329 O.2     1  UNL1       -0.2692
     15 H          62.6103   79.5872   14.0857 H       1  UNL1        0.1587
     16 O          62.0637   87.7476   11.4357 O.3     1  UNL1       -0.4684
     17 C          60.9946   86.8626   10.8665 C.3     1  UNL1        0.2526
     18 O          62.9858   89.5894   13.6168 O.3     1  UNL1       -0.4504
     19 C          65.3638   92.6789   11.3695 C.ar    1  UNL1        0.0758
     20 C          64.3553   91.8366   10.6461 C.ar    1  UNL1        0.0096
     21 C          63.5626   90.8067   11.3952 C.ar    1  UNL1        0.0377
     22 C          63.7785   90.6193   12.8677 C.ar    1  UNL1        0.1454
     23 C          64.7870   91.4616   13.5912 C.ar    1  UNL1        0.0348
     24 C          65.0028   91.2742   15.0636 C.ar    1  UNL1        0.0030
     25 C          66.0113   92.1165   15.7870 C.ar    1  UNL1        0.0001
     26 C          66.8040   93.1463   15.0379 C.ar    1  UNL1        0.0000
     27 C          66.5882   93.3338   13.5655 C.ar    1  UNL1        0.0003
     28 C          65.5797   92.4915   12.8421 C.ar    1  UNL1        0.0092
     29 C          66.1565   93.7087   10.6204 C.2     1  UNL1        0.3413
     30 O          65.5275   95.0212   10.2574 O.2     1  UNL1       -0.2449
     31 C          68.0121   92.0190    9.9484 C.3     1  UNL1        0.2560
     32 O          67.5781   93.4261   10.2344 O.3     1  UNL1       -0.4413
@<TRIPOS>BOND
     1    31    32    1
     2    32    29    1
     3    29    30    2
     4    29    19    1
     5    19    20   ar
     6    20    21   ar
     7    21    22   ar
     8    22    18    1
     9    18     1    1
    10     1     2   ar
    11     2     3   ar
    12     3     4   ar
    13     4     7    1
    14     7     8    2
    15     8     9    1
    16     9    10    1
    17    10    11    2
    18    10    12   am
    19    12    13   am
    20    13    14    2
    21     4     5   ar
    22     5     6   ar
    23     6    16    1
    24    16    17    1
    25    22    23   ar
    26    23    24   ar
    27    24    25   ar
    28    25    26   ar
    29    26    27   ar
    30    27    28   ar
    31    28    19   ar
    32     6     1   ar
    33    28    23   ar
    34    13     8    1
    35    12    15    1
@<TRIPOS>MOLECULE
*****
 32 35 0 0 0
SMALL
GASTEIGER

@<TRIPOS>ATOM
      1 C          63.8031   88.2790   15.2988 C.ar    1  UNL1        0.1789
      2 C          64.1964   87.6448   13.9975 C.ar    1  UNL1        0.0406
      3 C          64.1985   86.1510   13.8616 C.ar    1  UNL1        0.0034
      4 C          63.8073   85.2913   15.0269 C.ar    1  UNL1        0.0039
      5 C          63.4139   85.9254   16.3281 C.ar    1  UNL1        0.0401
      6 C          63.4118   87.4193   16.4640 C.ar    1  UNL1        0.1730
      7 C          63.8093   83.7975   14.8910 C.2     1  UNL1        0.0113
      8 C          63.7936   83.1682   13.5294 C.2     1  UNL1        0.0873
      9 S          63.7750   83.8999   12.2201 S.3     1  UNL1       -0.0254
     10 C          63.7636   82.8807   11.1196 C.2     1  UNL1        0.2832
     11 O          63.7441   83.1719    9.6484 O.2     1  UNL1       -0.2622
     12 N          63.7751   81.5191   11.7488 N.am    1  UNL1       -0.2425
     13 C          63.7936   81.6967   13.2382 C.2     1  UNL1        0.2583
     14 O          63.8094   80.5963   14.2572 O.2     1  UNL1       -0.2692
     15 H          63.7712   80.6597   11.2685 H       1  UNL1        0.1587
     16 O          63.0185   88.0534   17.7652 O.3     1  UNL1       -0.4684
     17 C          62.6268   87.1937   18.9304 C.3     1  UNL1        0.2526
     18 O          63.8010   89.7728   15.4347 O.3     1  UNL1       -0.4504
     19 C          65.3148   92.3409   12.0638 C.ar    1  UNL1        0.0758
     20 C          64.2269   91.3391   11.8132 C.ar    1  UNL1        0.0096
     21 C          63.7223   90.4831   12.9368 C.ar    1  UNL1        0.0377
     22 C          64.3056   90.6288   14.3110 C.ar    1  UNL1        0.1454
     23 C          65.3936   91.6307   14.5617 C.ar    1  UNL1        0.0348
     24 C          65.9769   91.7764   15.9359 C.ar    1  UNL1        0.0030
     25 C          67.0648   92.7782   16.1865 C.ar    1  UNL1        0.0001
     26 C          67.5694   93.6342   15.0628 C.ar    1  UNL1        0.0000
     27 C          66.9861   93.4885   13.6886 C.ar    1  UNL1        0.0003
     28 C          65.8982   92.4867   13.4381 C.ar    1  UNL1        0.0092
     29 C          65.8195   93.1970   10.9402 C.2     1  UNL1        0.3413
     30 O          65.2860   94.5871   10.7585 O.2     1  UNL1       -0.2449
     31 C          67.8394   93.5976    9.3561 C.3     1  UNL1        0.2560
     32 O          66.8575   92.6629    9.9983 O.3     1  UNL1       -0.4413
@<TRIPOS>BOND
     1    31    32    1
     2    32    29    1
     3    29    30    2
     4    29    19    1
     5    19    20   ar
     6    20    21   ar
     7    21    22   ar
     8    22    18    1
     9    18     1    1
    10     1     2   ar
    11     2     3   ar
    12     3     4   ar
    13     4     7    1
    14     7     8    2
    15     8     9    1
    16     9    10    1
    17    10    11    2
    18    10    12   am
    19    12    13   am
    20    13    14    2
    21     4     5   ar
    22     5     6   ar
    23     6    16    1
    24    16    17    1
    25    22    23   ar
    26    23    24   ar
    27    24    25   ar
    28    25    26   ar
    29    26    27   ar
    30    27    28   ar
    31    28    19   ar
    32     6     1   ar
    33    28    23   ar
    34    13     8    1
    35    12    15    1
@<TRIPOS>MOLECULE
*****
 32 35 0 0 0
SMALL
GASTEIGER

@<TRIPOS>ATOM
      1 C          63.5769   89.1775   13.6619 C.ar    1  UNL1        0.1789
      2 C          64.1246   88.6552   14.9570 C.ar    1  UNL1        0.0406
      3 C          64.2070   87.1764   15.1945 C.ar    1  UNL1        0.0034
      4 C          63.7415   86.2199   14.1369 C.ar    1  UNL1        0.0039
      5 C          63.1938   86.7422   12.8419 C.ar    1  UNL1        0.0401
      6 C          63.1115   88.2210   12.6043 C.ar    1  UNL1        0.1730
      7 C          63.8239   84.7412   14.3744 C.2     1  UNL1        0.0113
      8 C          63.8681   83.7959   13.2105 C.2     1  UNL1        0.0873
      9 S          63.8379   84.1803   11.7609 S.3     1  UNL1       -0.0254
     10 C          63.9015   82.9223   10.9464 C.2     1  UNL1        0.2832
     11 O          63.8965   82.8405    9.4487 O.2     1  UNL1       -0.2622
     12 N          63.9710   81.7605   11.8926 N.am    1  UNL1       -0.2425
     13 C          63.9504   82.3003   13.2919 C.2     1  UNL1        0.2583
     14 O          64.0028   81.4875   14.5514 O.2     1  UNL1       -0.2692
     15 H          64.0213   80.8104   11.6396 H       1  UNL1        0.1587
     16 O          62.5638   88.7432   11.3093 O.3     1  UNL1       -0.4684
     17 C          62.1925   87.7892   10.2129 C.3     1  UNL1        0.2526
     18 O          63.4946   90.6563   13.4245 O.3     1  UNL1       -0.4504
     19 C          66.7062   92.7371   11.0568 C.ar    1  UNL1        0.0758
     20 C          65.3932   92.4069   10.4111 C.ar    1  UNL1        0.0096
     21 C          64.3227   91.7133   11.2003 C.ar    1  UNL1        0.0377
     22 C          64.5651   91.3499   12.6352 C.ar    1  UNL1        0.1454
     23 C          65.8781   91.6801   13.2811 C.ar    1  UNL1        0.0348
     24 C          66.1206   91.3167   14.7160 C.ar    1  UNL1        0.0030
     25 C          67.4335   91.6470   15.3617 C.ar    1  UNL1        0.0001
     26 C          68.5041   92.3406   14.5725 C.ar    1  UNL1        0.0000
     27 C          68.2616   92.7040   13.1376 C.ar    1  UNL1        0.0003
     28 C          66.9487   92.3737   12.4919 C.ar    1  UNL1        0.0092
     29 C          67.7767   93.4308   10.2676 C.2     1  UNL1        0.3413
     30 O          68.9562   92.6551    9.7603 O.2     1  UNL1       -0.2449
     31 C          67.5118   95.3833    8.5743 C.3     1  UNL1        0.2560
     32 O          67.6678   94.9000    9.9857 O.3     1  UNL1       -0.4413
@<TRIPOS>BOND
     1    31    32    1
     2    32    29    1
     3    29    30    2
     4    29    19    1
     5    19    20   ar
     6    20    21   ar
     7    21    22   ar
     8    22    18    1
     9    18     1    1
    10     1     2   ar
    11     2     3   ar
    12     3     4   ar
    13     4     7    1
    14     7     8    2
    15     8     9    1
    16     9    10    1
    17    10    11    2
    18    10    12   am
    19    12    13   am
    20    13    14    2
    21     4     5   ar
    22     5     6   ar
    23     6    16    1
    24    16    17    1
    25    22    23   ar
    26    23    24   ar
    27    24    25   ar
    28    25    26   ar
    29    26    27   ar
    30    27    28   ar
    31    28    19   ar
    32     6     1   ar
    33    28    23   ar
    34    13     8    1
    35    12    15    1
@<TRIPOS>MOLECULE
*****
 32 35 0 0 0
SMALL
GASTEIGER

@<TRIPOS>ATOM
      1 C          63.4911   90.3093   12.7383 C.ar    1  UNL1        0.1789
      2 C          63.1756   90.7329   11.3343 C.ar    1  UNL1        0.0406
      3 C          63.8687   91.9209   10.7357 C.ar    1  UNL1        0.0034
      4 C          64.8772   92.6853   11.5410 C.ar    1  UNL1        0.0039
      5 C          65.1927   92.2618   12.9449 C.ar    1  UNL1        0.0401
      6 C          64.4996   91.0738   13.5436 C.ar    1  UNL1        0.1730
      7 C          65.5702   93.8733   10.9424 C.2     1  UNL1        0.0113
      8 C          66.7534   93.6762   10.0417 C.2     1  UNL1        0.0873
      9 S          67.3541   92.3586    9.6508 S.3     1  UNL1       -0.0254
     10 C          68.5156   92.6302    8.7413 C.2     1  UNL1        0.2832
     11 O          69.4040   91.5976    8.1133 O.2     1  UNL1       -0.2622
     12 N          68.6327   94.1158    8.5701 N.am    1  UNL1       -0.2425
     13 C          67.5436   94.7623    9.3738 C.2     1  UNL1        0.2583
     14 O          67.2894   96.2360    9.4892 O.2     1  UNL1       -0.2692
     15 H          69.3062   94.5842    8.0258 H       1  UNL1        0.1587
     16 O          64.8151   90.6502   14.9475 O.3     1  UNL1       -0.4684
     17 C          63.8839   91.0107   16.0669 C.3     1  UNL1        0.2526
     18 O          62.7981   89.1213   13.3369 O.3     1  UNL1       -0.4504
     19 C          63.0674   85.1073   11.3207 C.ar    1  UNL1        0.0758
     20 C          62.3467   86.2377   10.6479 C.ar    1  UNL1        0.0096
     21 C          62.2569   87.5757   11.3199 C.ar    1  UNL1        0.0377
     22 C          62.8879   87.7833   12.6648 C.ar    1  UNL1        0.1454
     23 C          63.6086   86.6529   13.3377 C.ar    1  UNL1        0.0348
     24 C          64.2396   86.8605   14.6826 C.ar    1  UNL1        0.0030
     25 C          64.9603   85.7301   15.3554 C.ar    1  UNL1        0.0001
     26 C          65.0500   84.3921   14.6833 C.ar    1  UNL1        0.0000
     27 C          64.4191   84.1845   13.3384 C.ar    1  UNL1        0.0003
     28 C          63.6984   85.3149   12.6656 C.ar    1  UNL1        0.0092
     29 C          63.1572   83.7693   10.6486 C.2     1  UNL1        0.3413
     30 O          64.0304   83.5933    9.4417 O.2     1  UNL1       -0.2449
     31 C          63.0876   81.3769   11.6592 C.3     1  UNL1        0.2560
     32 O          62.3738   82.6073   11.1834 O.3     1  UNL1       -0.4413
@<TRIPOS>BOND
     1    31    32    1
     2    32    29    1
     3    29    30    2
     4    29    19    1
     5    19    20   ar
     6    20    21   ar
     7    21    22   ar
     8    22    18    1
     9    18     1    1
    10     1     2   ar
    11     2     3   ar
    12     3     4   ar
    13     4     7    1
    14     7     8    2
    15     8     9    1
    16     9    10    1
    17    10    11    2
    18    10    12   am
    19    12    13   am
    20    13    14    2
    21     4     5   ar
    22     5     6   ar
    23     6    16    1
    24    16    17    1
    25    22    23   ar
    26    23    24   ar
    27    24    25   ar
    28    25    26   ar
    29    26    27   ar
    30    27    28   ar
    31    28    19   ar
    32     6     1   ar
    33    28    23   ar
    34    13     8    1
    35    12    15    1
@<TRIPOS>MOLECULE
*****
 32 35 0 0 0
SMALL
GASTEIGER

@<TRIPOS>ATOM
      1 C          62.7437   88.0030   12.4853 C.ar    1  UNL1        0.1789
      2 C          62.2439   87.7299   11.0976 C.ar    1  UNL1        0.0406
      3 C          62.3585   86.3517   10.5169 C.ar    1  UNL1        0.0034
      4 C          62.9729   85.2465   11.3238 C.ar    1  UNL1        0.0039
      5 C          63.4726   85.5195   12.7115 C.ar    1  UNL1        0.0401
      6 C          63.3580   86.8978   13.2923 C.ar    1  UNL1        0.1730
      7 C          63.0875   83.8682   10.7431 C.2     1  UNL1        0.0113
      8 C          62.8954   82.6665   11.6200 C.2     1  UNL1        0.0873
      9 S          62.5856   82.6864   13.0875 S.3     1  UNL1       -0.0254
     10 C          62.4781   81.2661   13.5579 C.2     1  UNL1        0.2832
     11 O          62.1797   80.8215   14.9590 O.2     1  UNL1       -0.2622
     12 N          62.7213   80.3684   12.3810 N.am    1  UNL1       -0.2425
     13 C          62.9792   81.2339   11.1833 C.2     1  UNL1        0.2583
     14 O          63.2700   80.7515    9.7931 O.2     1  UNL1       -0.2692
     15 H          62.7132   79.3840   12.3926 H       1  UNL1        0.1587
     16 O          63.8578   87.1709   14.6799 O.3     1  UNL1       -0.4684
     17 C          64.2043   86.0302   15.5903 C.3     1  UNL1        0.2526
     18 O          62.6291   89.3812   13.0661 O.3     1  UNL1       -0.4504
     19 C          66.3419   91.7557   13.9753 C.ar    1  UNL1        0.0758
     20 C          65.8255   90.7603   14.9716 C.ar    1  UNL1        0.0096
     21 C          64.5879   89.9689   14.6685 C.ar    1  UNL1        0.0377
     22 C          63.8667   90.1727   13.3691 C.ar    1  UNL1        0.1454
     23 C          64.3831   91.1681   12.3728 C.ar    1  UNL1        0.0348
     24 C          63.6620   91.3719   11.0735 C.ar    1  UNL1        0.0030
     25 C          64.1784   92.3673   10.0772 C.ar    1  UNL1        0.0001
     26 C          65.4161   93.1587   10.3803 C.ar    1  UNL1        0.0000
     27 C          66.1372   92.9549   11.6796 C.ar    1  UNL1        0.0003
     28 C          65.6208   91.9596   12.6759 C.ar    1  UNL1        0.0092
     29 C          67.5796   92.5471   14.2784 C.2     1  UNL1        0.3413
     30 O          68.8681   92.2197   13.5837 O.2     1  UNL1       -0.2449
     31 C          68.7730   94.0775   16.0057 C.3     1  UNL1        0.2560
     32 O          67.5287   93.6660   15.2761 O.3     1  UNL1       -0.4413
@<TRIPOS>BOND
     1    31    32    1
     2    32    29    1
     3    29    30    2
     4    29    19    1
     5    19    20   ar
     6    20    21   ar
     7    21    22   ar
     8    22    18    1
     9    18     1    1
    10     1     2   ar
    11     2     3   ar
    12     3     4   ar
    13     4     7    1
    14     7     8    2
    15     8     9    1
    16     9    10    1
    17    10    11    2
    18    10    12   am
    19    12    13   am
    20    13    14    2
    21     4     5   ar
    22     5     6   ar
    23     6    16    1
    24    16    17    1
    25    22    23   ar
    26    23    24   ar
    27    24    25   ar
    28    25    26   ar
    29    26    27   ar
    30    27    28   ar
    31    28    19   ar
    32     6     1   ar
    33    28    23   ar
    34    13     8    1
    35    12    15    1
