@<TRIPOS>MOLECULE
*****
 26 29 0 0 0
SMALL
GASTEIGER

@<TRIPOS>ATOM
      1 N          62.8695   82.4669   14.9427 N.3     1  UNL1       -0.2982
      2 H          62.8147   81.6745   15.5827 H       1  UNL1        0.1232
      3 C          63.4464   82.0369   12.1357 C.3     1  UNL1        0.0201
      4 C          62.7713   80.7771   12.5907 C.3     1  UNL1        0.0174
      5 C          62.9978   81.8989   13.5603 C.3     1  UNL1        0.0544
      6 C          64.0951   82.8440   11.0505 C.3     1  UNL1        0.0278
      7 F          60.7031   86.7603   11.4463 F       1  UNL1       -0.2042
      8 C          61.6622   85.9504   10.6252 C.ar    1  UNL1        0.1398
      9 C          61.8843   86.2888    9.1809 C.ar    1  UNL1        0.0296
     10 C          62.8434   85.4789    8.3597 C.ar    1  UNL1        0.0020
     11 C          63.5803   84.3307    8.9829 C.ar    1  UNL1       -0.0041
     12 C          63.3582   83.9923   10.4272 C.ar    1  UNL1       -0.0199
     13 C          62.3991   84.8022   11.2484 C.ar    1  UNL1        0.0254
     14 C          63.9293   83.3835   15.4782 C.3     1  UNL1        0.0749
     15 C          64.2857   84.6348   14.7317 C.3     1  UNL1        0.0630
     16 C          63.9342   85.9758   15.3047 C.ar    1  UNL1        0.0650
     17 C          63.3102   86.0698   16.6655 C.ar    1  UNL1        0.0356
     18 C          62.9587   87.4107   17.2384 C.ar    1  UNL1        0.1033
     19 N          63.2312   88.6577   16.4505 N.ar    1  UNL1       -0.2095
     20 C          63.8552   88.5637   15.0897 C.ar    1  UNL1        0.2378
     21 N          64.2067   87.2227   14.5168 N.ar    1  UNL1       -0.2154
     22 N          64.1277   89.8107   14.3018 N.ar    1  UNL1       -0.2558
     23 C          63.6950   90.0737   12.8899 C.ar    1  UNL1        0.1050
     24 C          64.1806   91.4391   12.5030 C.ar    1  UNL1        0.1197
     25 N          64.9135   92.0200   13.6757 N.ar    1  UNL1       -0.2219
     26 C          64.8809   91.0135   14.7874 C.ar    1  UNL1        0.1851
@<TRIPOS>BOND
     1     7     8    1
     2     8     9   ar
     3     9    10   ar
     4    10    11   ar
     5    11    12   ar
     6    12     6    1
     7     3     6    1
     8     3     4    1
     9     4     5    1
    10     5     1    1
    11     1    14    1
    12    14    15    1
    13    15    16    1
    14    16    17   ar
    15    17    18   ar
    16    18    19   ar
    17    19    20   ar
    18    20    22    1
    19    22    23   ar
    20    23    24   ar
    21    24    25   ar
    22    25    26   ar
    23    20    21   ar
    24    12    13   ar
    25    13     8   ar
    26     5     3    1
    27    21    16   ar
    28    26    22   ar
    29     1     2    1
@<TRIPOS>MOLECULE
*****
 26 29 0 0 0
SMALL
GASTEIGER

@<TRIPOS>ATOM
      1 N          63.0677   84.5759   12.6278 N.3     1  UNL1       -0.2982
      2 H          62.0492   84.5866   12.6828 H       1  UNL1        0.1232
      3 C          63.4456   84.2335    9.7752 C.3     1  UNL1        0.0201
      4 C          64.0134   82.9907   10.3940 C.3     1  UNL1        0.0174
      5 C          63.4223   84.0594   11.2649 C.3     1  UNL1        0.0544
      6 C          63.1311   85.0516    8.5579 C.3     1  UNL1        0.0278
      7 F          61.0663   89.4807   10.3242 F       1  UNL1       -0.2042
      8 C          60.9677   88.2510    9.4709 C.ar    1  UNL1        0.1398
      9 C          59.7382   88.0062    8.6474 C.ar    1  UNL1        0.0296
     10 C          59.6396   86.7765    7.7940 C.ar    1  UNL1        0.0020
     11 C          60.7705   85.7917    7.7642 C.ar    1  UNL1       -0.0041
     12 C          62.0001   86.0365    8.5877 C.ar    1  UNL1       -0.0199
     13 C          62.0987   87.2662    9.4411 C.ar    1  UNL1        0.0254
     14 C          63.5600   83.8622   13.8518 C.3     1  UNL1        0.0749
     15 C          64.4326   84.5800   14.8384 C.3     1  UNL1        0.0630
     16 C          64.0227   85.9240   15.3635 C.ar    1  UNL1        0.0650
     17 C          63.3603   86.0350   16.7047 C.ar    1  UNL1        0.0356
     18 C          62.9504   87.3790   17.2297 C.ar    1  UNL1        0.1033
     19 N          63.2029   88.6120   16.4136 N.ar    1  UNL1       -0.2095
     20 C          63.8654   88.5009   15.0724 C.ar    1  UNL1        0.2378
     21 N          64.2753   87.1569   14.5473 N.ar    1  UNL1       -0.2154
     22 N          64.1180   89.7338   14.2563 N.ar    1  UNL1       -0.2558
     23 C          63.5828   90.0062   12.8818 C.ar    1  UNL1        0.1050
     24 C          64.0841   91.3516   12.4474 C.ar    1  UNL1        0.1197
     25 N          64.9292   91.9106   13.5534 N.ar    1  UNL1       -0.2219
     26 C          64.9501   90.9107   14.6714 C.ar    1  UNL1        0.1851
@<TRIPOS>BOND
     1     7     8    1
     2     8     9   ar
     3     9    10   ar
     4    10    11   ar
     5    11    12   ar
     6    12     6    1
     7     3     6    1
     8     3     4    1
     9     4     5    1
    10     5     1    1
    11     1    14    1
    12    14    15    1
    13    15    16    1
    14    16    17   ar
    15    17    18   ar
    16    18    19   ar
    17    19    20   ar
    18    20    22    1
    19    22    23   ar
    20    23    24   ar
    21    24    25   ar
    22    25    26   ar
    23    20    21   ar
    24    12    13   ar
    25    13     8   ar
    26     5     3    1
    27    21    16   ar
    28    26    22   ar
    29     1     2    1
@<TRIPOS>MOLECULE
*****
 26 29 0 0 0
SMALL
GASTEIGER

@<TRIPOS>ATOM
      1 N          62.4197   90.1879   13.9024 N.3     1  UNL1       -0.2982
      2 H          61.7826   89.5256   14.3448 H       1  UNL1        0.1232
      3 C          62.5233   88.7270   11.4021 C.3     1  UNL1        0.0201
      4 C          62.7074   90.1655   11.0191 C.3     1  UNL1        0.0174
      5 C          62.5245   89.7905   12.4599 C.3     1  UNL1        0.0544
      6 C          62.4162   87.2825   11.0124 C.3     1  UNL1        0.0278
      7 F          61.9193   84.6728    6.5467 F       1  UNL1       -0.2042
      8 C          61.3418   85.5803    7.5921 C.ar    1  UNL1        0.1398
      9 C          59.9384   86.0905    7.4502 C.ar    1  UNL1        0.0296
     10 C          59.3610   86.9980    8.4956 C.ar    1  UNL1        0.0020
     11 C          60.1869   87.3953    9.6830 C.ar    1  UNL1       -0.0041
     12 C          61.5902   86.8851    9.8250 C.ar    1  UNL1       -0.0199
     13 C          62.1677   85.9776    8.7795 C.ar    1  UNL1        0.0254
     14 C          63.6513   90.2409   14.7572 C.3     1  UNL1        0.0749
     15 C          64.4586   88.9978   14.9872 C.3     1  UNL1        0.0630
     16 C          63.8020   87.7695   15.5441 C.ar    1  UNL1        0.0650
     17 C          63.0604   87.8403   16.8461 C.ar    1  UNL1        0.0356
     18 C          62.4038   86.6120   17.4030 C.ar    1  UNL1        0.1033
     19 N          62.4888   85.3129   16.6580 N.ar    1  UNL1       -0.2095
     20 C          63.2304   85.2420   15.3560 C.ar    1  UNL1        0.2378
     21 N          63.8870   86.4704   14.7991 N.ar    1  UNL1       -0.2154
     22 N          63.3154   83.9430   14.6110 N.ar    1  UNL1       -0.2558
     23 C          62.3702   82.7861   14.7453 C.ar    1  UNL1        0.1050
     24 C          62.8312   81.7008   13.8182 C.ar    1  UNL1        0.1197
     25 N          64.0614   82.1869   13.1109 N.ar    1  UNL1       -0.2219
     26 C          64.3607   83.5727   13.6009 C.ar    1  UNL1        0.1851
@<TRIPOS>BOND
     1     7     8    1
     2     8     9   ar
     3     9    10   ar
     4    10    11   ar
     5    11    12   ar
     6    12     6    1
     7     3     6    1
     8     3     4    1
     9     4     5    1
    10     5     1    1
    11     1    14    1
    12    14    15    1
    13    15    16    1
    14    16    17   ar
    15    17    18   ar
    16    18    19   ar
    17    19    20   ar
    18    20    22    1
    19    22    23   ar
    20    23    24   ar
    21    24    25   ar
    22    25    26   ar
    23    20    21   ar
    24    12    13   ar
    25    13     8   ar
    26     5     3    1
    27    21    16   ar
    28    26    22   ar
    29     1     2    1
@<TRIPOS>MOLECULE
*****
 26 29 0 0 0
SMALL
GASTEIGER

@<TRIPOS>ATOM
      1 N          60.1283   87.9663   11.2519 N.3     1  UNL1       -0.2982
      2 H          60.4679   87.4114   12.0375 H       1  UNL1        0.1232
      3 C          61.4138   86.3207    9.2428 C.3     1  UNL1        0.0201
      4 C          60.1370   86.7840    8.6063 C.3     1  UNL1        0.0174
      5 C          60.4751   87.2085   10.0046 C.3     1  UNL1        0.0544
      6 C          62.6930   85.5406    9.1703 C.3     1  UNL1        0.0278
      7 F          62.4032   84.0722   14.1463 F       1  UNL1       -0.2042
      8 C          62.9000   83.8399   12.7501 C.ar    1  UNL1        0.1398
      9 C          63.7486   82.6411   12.4457 C.ar    1  UNL1        0.0296
     10 C          64.2454   82.4088   11.0496 C.ar    1  UNL1        0.0020
     11 C          63.8935   83.3753    9.9578 C.ar    1  UNL1       -0.0041
     12 C          63.0449   84.5741   10.2622 C.ar    1  UNL1       -0.0199
     13 C          62.5481   84.8064   11.6583 C.ar    1  UNL1        0.0254
     14 C          60.6454   89.3603   11.4507 C.3     1  UNL1        0.0749
     15 C          61.9174   89.7908   10.7823 C.3     1  UNL1        0.0630
     16 C          62.9731   90.5081   11.5703 C.ar    1  UNL1        0.0650
     17 C          63.0771   90.2962   13.0516 C.ar    1  UNL1        0.0356
     18 C          64.1328   91.0135   13.8395 C.ar    1  UNL1        0.1033
     19 N          65.0846   91.9427   13.1462 N.ar    1  UNL1       -0.2095
     20 C          64.9806   92.1546   11.6649 C.ar    1  UNL1        0.2378
     21 N          63.9248   91.4373   10.8769 N.ar    1  UNL1       -0.2154
     22 N          65.9323   93.0838   10.9715 N.ar    1  UNL1       -0.2558
     23 C          65.7456   94.5605   10.7868 C.ar    1  UNL1        0.1050
     24 C          66.9358   95.0888   10.0422 C.ar    1  UNL1        0.1197
     25 N          67.8581   93.9385    9.7668 N.ar    1  UNL1       -0.2219
     26 C          67.2380   92.6993   10.3411 C.ar    1  UNL1        0.1851
@<TRIPOS>BOND
     1     7     8    1
     2     8     9   ar
     3     9    10   ar
     4    10    11   ar
     5    11    12   ar
     6    12     6    1
     7     3     6    1
     8     3     4    1
     9     4     5    1
    10     5     1    1
    11     1    14    1
    12    14    15    1
    13    15    16    1
    14    16    17   ar
    15    17    18   ar
    16    18    19   ar
    17    19    20   ar
    18    20    22    1
    19    22    23   ar
    20    23    24   ar
    21    24    25   ar
    22    25    26   ar
    23    20    21   ar
    24    12    13   ar
    25    13     8   ar
    26     5     3    1
    27    21    16   ar
    28    26    22   ar
    29     1     2    1
@<TRIPOS>MOLECULE
*****
 26 29 0 0 0
SMALL
GASTEIGER

@<TRIPOS>ATOM
      1 N          60.0626   89.5483    9.0749 N.3     1  UNL1       -0.2982
      2 H          59.0964   89.8054    9.2769 H       1  UNL1        0.1232
      3 C          60.7911   86.8028    8.5017 C.3     1  UNL1        0.0201
      4 C          59.3091   86.8659    8.2788 C.3     1  UNL1        0.0174
      5 C          60.0559   88.0939    8.7080 C.3     1  UNL1        0.0544
      6 C          62.0712   86.0210    8.5113 C.3     1  UNL1        0.0278
      7 F          64.7718   82.2575   10.8656 F       1  UNL1       -0.2042
      8 C          63.8739   83.4564   10.9451 C.ar    1  UNL1        0.1398
      9 C          63.4283   83.9724   12.2812 C.ar    1  UNL1        0.0296
     10 C          62.5303   85.1713   12.3606 C.ar    1  UNL1        0.0020
     11 C          62.0780   85.8541   11.1041 C.ar    1  UNL1       -0.0041
     12 C          62.5235   85.3381    9.7680 C.ar    1  UNL1       -0.0199
     13 C          63.4215   84.1392    9.6885 C.ar    1  UNL1        0.0254
     14 C          60.8889   90.0260   10.2321 C.3     1  UNL1        0.0749
     15 C          62.3645   89.7579   10.2614 C.3     1  UNL1        0.0630
     16 C          63.2601   90.5861   11.1341 C.ar    1  UNL1        0.0650
     17 C          63.2729   90.3670   12.6180 C.ar    1  UNL1        0.0356
     18 C          64.1686   91.1953   13.4907 C.ar    1  UNL1        0.1033
     19 N          65.0515   92.2427   12.8796 N.ar    1  UNL1       -0.2095
     20 C          65.0387   92.4619   11.3958 C.ar    1  UNL1        0.2378
     21 N          64.1430   91.6336   10.5230 N.ar    1  UNL1       -0.2154
     22 N          65.9215   93.5093   10.7847 N.ar    1  UNL1       -0.2558
     23 C          67.0513   93.2623    9.8295 C.ar    1  UNL1        0.1050
     24 C          67.6576   94.5880    9.4760 C.ar    1  UNL1        0.1197
     25 N          66.9025   95.6543   10.2127 N.ar    1  UNL1       -0.2219
     26 C          65.8295   94.9876   11.0216 C.ar    1  UNL1        0.1851
@<TRIPOS>BOND
     1     7     8    1
     2     8     9   ar
     3     9    10   ar
     4    10    11   ar
     5    11    12   ar
     6    12     6    1
     7     3     6    1
     8     3     4    1
     9     4     5    1
    10     5     1    1
    11     1    14    1
    12    14    15    1
    13    15    16    1
    14    16    17   ar
    15    17    18   ar
    16    18    19   ar
    17    19    20   ar
    18    20    22    1
    19    22    23   ar
    20    23    24   ar
    21    24    25   ar
    22    25    26   ar
    23    20    21   ar
    24    12    13   ar
    25    13     8   ar
    26     5     3    1
    27    21    16   ar
    28    26    22   ar
    29     1     2    1
@<TRIPOS>MOLECULE
*****
 26 29 0 0 0
SMALL
GASTEIGER

@<TRIPOS>ATOM
      1 N          61.9408   88.7470   12.0228 N.3     1  UNL1       -0.2982
      2 H          61.8076   87.9313   12.6206 H       1  UNL1        0.1232
      3 C          61.7555   87.3123    9.5120 C.3     1  UNL1        0.0201
      4 C          60.9524   88.5622    9.3051 C.3     1  UNL1        0.0174
      5 C          61.6263   88.3131   10.6218 C.3     1  UNL1        0.0544
      6 C          62.2938   86.0129    8.9906 C.3     1  UNL1        0.0278
      7 F          62.4126   83.9736   13.7684 F       1  UNL1       -0.2042
      8 C          62.8552   83.9519   12.3354 C.ar    1  UNL1        0.1398
      9 C          63.7999   82.8890   11.8582 C.ar    1  UNL1        0.0296
     10 C          64.2426   82.8674   10.4251 C.ar    1  UNL1        0.0020
     11 C          63.7405   83.9087    9.4693 C.ar    1  UNL1       -0.0041
     12 C          62.7958   84.9716    9.9465 C.ar    1  UNL1       -0.0199
     13 C          62.3532   84.9932   11.3795 C.ar    1  UNL1        0.0254
     14 C          63.2939   89.3065   12.3488 C.3     1  UNL1        0.0749
     15 C          63.4096   90.5910   13.1147 C.3     1  UNL1        0.0630
     16 C          64.7130   91.3329   13.1424 C.ar    1  UNL1        0.0650
     17 C          65.6892   91.0926   14.2556 C.ar    1  UNL1        0.0356
     18 C          66.9926   91.8344   14.2833 C.ar    1  UNL1        0.1033
     19 N          67.3198   92.8166   13.1978 N.ar    1  UNL1       -0.2095
     20 C          66.3436   93.0569   12.0846 C.ar    1  UNL1        0.2378
     21 N          65.0401   92.3150   12.0569 N.ar    1  UNL1       -0.2154
     22 N          66.6707   94.0390   10.9991 N.ar    1  UNL1       -0.2558
     23 C          67.3234   93.7183    9.6873 C.ar    1  UNL1        0.1050
     24 C          67.4587   94.9954    8.9123 C.ar    1  UNL1        0.1197
     25 N          66.8896   96.1055    9.7451 N.ar    1  UNL1       -0.2219
     26 C          66.4026   95.5144   11.0349 C.ar    1  UNL1        0.1851
@<TRIPOS>BOND
     1     7     8    1
     2     8     9   ar
     3     9    10   ar
     4    10    11   ar
     5    11    12   ar
     6    12     6    1
     7     3     6    1
     8     3     4    1
     9     4     5    1
    10     5     1    1
    11     1    14    1
    12    14    15    1
    13    15    16    1
    14    16    17   ar
    15    17    18   ar
    16    18    19   ar
    17    19    20   ar
    18    20    22    1
    19    22    23   ar
    20    23    24   ar
    21    24    25   ar
    22    25    26   ar
    23    20    21   ar
    24    12    13   ar
    25    13     8   ar
    26     5     3    1
    27    21    16   ar
    28    26    22   ar
    29     1     2    1
@<TRIPOS>MOLECULE
*****
 26 29 0 0 0
SMALL
GASTEIGER

@<TRIPOS>ATOM
      1 N          63.2413   88.8286   16.8513 N.3     1  UNL1       -0.2982
      2 H          63.9937   89.0503   17.5034 H       1  UNL1        0.1232
      3 C          63.5620   86.0146   16.2387 C.3     1  UNL1        0.0201
      4 C          62.5101   86.0619   17.3070 C.3     1  UNL1        0.0174
      5 C          63.1313   87.3333   16.8093 C.3     1  UNL1        0.0544
      6 C          64.4180   85.2259   15.2926 C.3     1  UNL1        0.0278
      7 F          61.1347   81.2563   14.6130 F       1  UNL1       -0.2042
      8 C          62.1532   82.2088   14.0605 C.ar    1  UNL1        0.1398
      9 C          62.5486   82.1292   12.6158 C.ar    1  UNL1        0.0296
     10 C          63.5671   83.0817   12.0633 C.ar    1  UNL1        0.0020
     11 C          64.1902   84.1140   12.9555 C.ar    1  UNL1       -0.0041
     12 C          63.7948   84.1937   14.4002 C.ar    1  UNL1       -0.0199
     13 C          62.7763   83.2411   14.9527 C.ar    1  UNL1        0.0254
     14 C          63.5189   89.5959   15.5926 C.3     1  UNL1        0.0749
     15 C          63.9987   88.8772   14.3666 C.3     1  UNL1        0.0630
     16 C          63.5793   89.3516   13.0068 C.ar    1  UNL1        0.0650
     17 C          63.9059   90.7476   12.5657 C.ar    1  UNL1        0.0356
     18 C          63.4865   91.2220   11.2059 C.ar    1  UNL1        0.1033
     19 N          62.7404   90.3003   10.2872 N.ar    1  UNL1       -0.2095
     20 C          62.4138   88.9044   10.7283 C.ar    1  UNL1        0.2378
     21 N          62.8332   88.4300   12.0881 N.ar    1  UNL1       -0.2154
     22 N          61.6677   87.9828    9.8096 N.ar    1  UNL1       -0.2558
     23 C          60.3262   88.2480    9.1934 C.ar    1  UNL1        0.1050
     24 C          59.9616   87.0633    8.3488 C.ar    1  UNL1        0.1197
     25 N          61.0778   86.0658    8.4430 N.ar    1  UNL1       -0.2219
     26 C          62.1323   86.6341    9.3458 C.ar    1  UNL1        0.1851
@<TRIPOS>BOND
     1     7     8    1
     2     8     9   ar
     3     9    10   ar
     4    10    11   ar
     5    11    12   ar
     6    12     6    1
     7     3     6    1
     8     3     4    1
     9     4     5    1
    10     5     1    1
    11     1    14    1
    12    14    15    1
    13    15    16    1
    14    16    17   ar
    15    17    18   ar
    16    18    19   ar
    17    19    20   ar
    18    20    22    1
    19    22    23   ar
    20    23    24   ar
    21    24    25   ar
    22    25    26   ar
    23    20    21   ar
    24    12    13   ar
    25    13     8   ar
    26     5     3    1
    27    21    16   ar
    28    26    22   ar
    29     1     2    1
@<TRIPOS>MOLECULE
*****
 26 29 0 0 0
SMALL
GASTEIGER

@<TRIPOS>ATOM
      1 N          60.3558   89.6297   12.2272 N.3     1  UNL1       -0.2982
      2 H          59.8354   90.4525   11.9232 H       1  UNL1        0.1232
      3 C          63.2173   90.0594   12.3834 C.3     1  UNL1        0.0201
      4 C          62.8850   90.1835   10.9259 C.3     1  UNL1        0.0174
      5 C          61.8003   89.8932   11.9204 C.3     1  UNL1        0.0544
      6 C          64.2272   90.0838   13.4921 C.3     1  UNL1        0.0278
      7 F          67.1601   93.0228   16.6163 F       1  UNL1       -0.2042
      8 C          66.5356   92.7749   15.2752 C.ar    1  UNL1        0.1398
      9 C          66.7529   93.7486   14.1551 C.ar    1  UNL1        0.0296
     10 C          66.1284   93.5007   12.8140 C.ar    1  UNL1        0.0020
     11 C          65.2865   92.2791   12.5930 C.ar    1  UNL1       -0.0041
     12 C          65.0692   91.3054   13.7131 C.ar    1  UNL1       -0.0199
     13 C          65.6937   91.5533   15.0542 C.ar    1  UNL1        0.0254
     14 C          59.6679   88.4374   11.6310 C.3     1  UNL1        0.0749
     15 C          60.1636   87.8525   10.3418 C.3     1  UNL1        0.0630
     16 C          61.1723   86.7425   10.3606 C.ar    1  UNL1        0.0650
     17 C          61.7833   86.2625    9.0776 C.ar    1  UNL1        0.0356
     18 C          62.7920   85.1525    9.0964 C.ar    1  UNL1        0.1033
     19 N          63.1898   84.5225   10.3984 N.ar    1  UNL1       -0.2095
     20 C          62.5788   85.0026   11.6814 C.ar    1  UNL1        0.2378
     21 N          61.5700   86.1126   11.6625 N.ar    1  UNL1       -0.2154
     22 N          62.9765   84.3727   12.9833 N.ar    1  UNL1       -0.2558
     23 C          63.8555   84.9909   14.0297 C.ar    1  UNL1        0.1050
     24 C          63.9873   84.0143   15.1605 C.ar    1  UNL1        0.1197
     25 N          63.1897   82.7924   14.8130 N.ar    1  UNL1       -0.2219
     26 C          62.5650   83.0139   13.4674 C.ar    1  UNL1        0.1851
@<TRIPOS>BOND
     1     7     8    1
     2     8     9   ar
     3     9    10   ar
     4    10    11   ar
     5    11    12   ar
     6    12     6    1
     7     3     6    1
     8     3     4    1
     9     4     5    1
    10     5     1    1
    11     1    14    1
    12    14    15    1
    13    15    16    1
    14    16    17   ar
    15    17    18   ar
    16    18    19   ar
    17    19    20   ar
    18    20    22    1
    19    22    23   ar
    20    23    24   ar
    21    24    25   ar
    22    25    26   ar
    23    20    21   ar
    24    12    13   ar
    25    13     8   ar
    26     5     3    1
    27    21    16   ar
    28    26    22   ar
    29     1     2    1
@<TRIPOS>MOLECULE
*****
 26 29 0 0 0
SMALL
GASTEIGER

@<TRIPOS>ATOM
      1 N          64.2763   88.3017   14.1158 N.3     1  UNL1       -0.2982
      2 H          63.7938   88.1798   13.2254 H       1  UNL1        0.1232
      3 C          64.5105   85.4928   14.7882 C.3     1  UNL1        0.0201
      4 C          63.9564   86.1423   16.0215 C.3     1  UNL1        0.0174
      5 C          64.2533   86.9704   14.8066 C.3     1  UNL1        0.0544
      6 C          64.9789   84.2646   14.0655 C.3     1  UNL1        0.0278
      7 F          63.0705   81.0271   10.4772 F       1  UNL1       -0.2042
      8 C          63.0375   81.5915   11.8665 C.ar    1  UNL1        0.1398
      9 C          62.0174   81.1016   12.8511 C.ar    1  UNL1        0.0296
     10 C          61.9845   81.6660   14.2404 C.ar    1  UNL1        0.0020
     11 C          62.9716   82.7204   14.6453 C.ar    1  UNL1       -0.0041
     12 C          63.9917   83.2103   13.6607 C.ar    1  UNL1       -0.0199
     13 C          64.0246   82.6458   12.2714 C.ar    1  UNL1        0.0254
     14 C          63.6659   89.5011   14.7784 C.3     1  UNL1        0.0749
     15 C          63.6961   90.8340   14.0912 C.3     1  UNL1        0.0630
     16 C          65.0100   91.4758   13.7567 C.ar    1  UNL1        0.0650
     17 C          66.2124   91.2143   14.6146 C.ar    1  UNL1        0.0356
     18 C          67.5262   91.8561   14.2801 C.ar    1  UNL1        0.1033
     19 N          67.6377   92.7595   13.0877 N.ar    1  UNL1       -0.2095
     20 C          66.4353   93.0210   12.2299 C.ar    1  UNL1        0.2378
     21 N          65.1214   92.3791   12.5644 N.ar    1  UNL1       -0.2154
     22 N          66.5467   93.9243   11.0376 N.ar    1  UNL1       -0.2558
     23 C          67.2615   93.6099    9.7571 C.ar    1  UNL1        0.1050
     24 C          67.1195   94.7919    8.8446 C.ar    1  UNL1        0.1197
     25 N          66.3168   95.8368    9.5612 N.ar    1  UNL1       -0.2219
     26 C          65.9628   95.3006   10.9166 C.ar    1  UNL1        0.1851
@<TRIPOS>BOND
     1     7     8    1
     2     8     9   ar
     3     9    10   ar
     4    10    11   ar
     5    11    12   ar
     6    12     6    1
     7     3     6    1
     8     3     4    1
     9     4     5    1
    10     5     1    1
    11     1    14    1
    12    14    15    1
    13    15    16    1
    14    16    17   ar
    15    17    18   ar
    16    18    19   ar
    17    19    20   ar
    18    20    22    1
    19    22    23   ar
    20    23    24   ar
    21    24    25   ar
    22    25    26   ar
    23    20    21   ar
    24    12    13   ar
    25    13     8   ar
    26     5     3    1
    27    21    16   ar
    28    26    22   ar
    29     1     2    1
