@<TRIPOS>MOLECULE
*****
 36 41 0 0 0
SMALL
GASTEIGER

@<TRIPOS>ATOM
      1 C          63.7102   84.4765   13.8464 C.2     1  UNL1        0.1558
      2 N          64.4954   84.9548   15.0316 N.2     1  UNL1       -0.2402
      3 C          64.5636   86.4519   14.9689 C.2     1  UNL1        0.0929
      4 C          63.8206   86.8990   13.7449 C.2     1  UNL1        0.0093
      5 C          63.2932   85.6781   13.0511 C.3     1  UNL1        0.1374
      6 N          62.5013   85.8182   11.7850 N.pl3   1  UNL1       -0.3295
      7 C          62.2368   87.1792   11.2125 C.2     1  UNL1        0.0215
      8 C          62.7642   88.4001   11.9062 C.2     1  UNL1        0.0322
      9 C          62.4997   89.7611   11.3338 C.2     1  UNL1        0.1707
     10 O          63.0271   90.9820   12.0276 O.2     1  UNL1       -0.2916
     11 C          61.7078   89.9012   10.0676 C.3     1  UNL1        0.0693
     12 C          61.1804   88.6803    9.3739 C.3     1  UNL1        0.0141
     13 C          61.4449   87.3193    9.9463 C.3     1  UNL1        0.0411
     14 C          63.5561   88.2599   13.1725 C.3     1  UNL1        0.1049
     15 H          62.1551   85.0169   11.3297 H       1  UNL1        0.1471
     16 C          64.0835   89.4808   13.8662 C.ar    1  UNL1        0.1312
     17 C          63.6277   90.0057   15.1954 C.ar    1  UNL1        0.0373
     18 C          64.4218   91.2405   15.5033 C.ar    1  UNL1        0.0472
     19 C          65.3684   91.4787   14.3644 C.ar    1  UNL1        0.1774
     20 O          65.1593   90.3912   13.3526 O.2     1  UNL1       -0.4506
     21 S          66.3515   92.6064   14.2561 S.3     1  UNL1       -0.0117
     22 C          66.5423   93.3120   12.9464 C.2     1  UNL1        0.1967
     23 N          66.1581   94.7303   12.6448 N.2     1  UNL1       -0.2196
     24 C          66.5291   95.0181   11.2201 C.2     1  UNL1        0.1000
     25 C          66.3876   96.2494   10.3752 C.2     1  UNL1        0.0202
     26 C          66.8595   96.2402    8.9514 C.2     1  UNL1        0.0001
     27 C          67.4728   94.9999    8.3725 C.2     1  UNL1        0.0147
     28 C          67.6144   93.7686    9.2174 C.3     1  UNL1        0.2242
     29 F          68.2278   92.5282    8.6385 F       1  UNL1       -0.2258
     30 C          67.1425   93.7777   10.6412 C.2     1  UNL1        0.1153
     31 N          67.1506   92.7233   11.7081 N.2     1  UNL1       -0.2207
     32 C          63.3971   83.0476   13.5146 C.2     1  UNL1        0.3569
     33 O          63.7599   81.9570   14.4784 O.2     1  UNL1       -0.2435
     34 O          62.7211   82.7093   12.2190 O.3     1  UNL1       -0.4446
     35 C          64.2875   83.1123   10.1857 C.3     1  UNL1        0.0513
     36 C          63.5245   82.1726   11.0715 C.3     1  UNL1        0.2089
@<TRIPOS>BOND
     1    35    36    1
     2    36    34    1
     3    34    32    1
     4    32    33    2
     5    32     1    1
     6     1     2    2
     7     2     3    1
     8     3     4    2
     9     4     5    1
    10     5     6    1
    11     6     7    1
    12     7     8    2
    13     8     9    1
    14     9    10    2
    15     9    11    1
    16    11    12    1
    17    12    13    1
    18     8    14    1
    19    14    16    1
    20    16    17   ar
    21    17    18   ar
    22    18    19   ar
    23    19    21    1
    24    21    22    1
    25    22    23    2
    26    23    24    1
    27    24    25    2
    28    25    26    1
    29    26    27    2
    30    27    28    1
    31    28    29    1
    32    28    30    1
    33    30    31    2
    34    19    20   ar
    35     5     1    1
    36    13     7    1
    37    20    16   ar
    38    14     4    1
    39    31    22    1
    40    30    24    1
    41     6    15    1
@<TRIPOS>MOLECULE
*****
 36 41 0 0 0
SMALL
GASTEIGER

@<TRIPOS>ATOM
      1 C          60.8256   88.2049    9.4556 C.2     1  UNL1        0.1558
      2 N          60.9227   89.6965    9.5804 N.2     1  UNL1       -0.2402
      3 C          61.7918   90.0070   10.7628 C.2     1  UNL1        0.0929
      4 C          62.2319   88.7073   11.3687 C.2     1  UNL1        0.0093
      5 C          61.6347   87.5935   10.5608 C.3     1  UNL1        0.1374
      6 N          61.9048   86.1666   10.9359 N.pl3   1  UNL1       -0.3295
      7 C          62.7722   85.8533   12.1190 C.2     1  UNL1        0.0215
      8 C          63.3694   86.9671   12.9269 C.2     1  UNL1        0.0322
      9 C          64.2368   86.6540   14.1099 C.2     1  UNL1        0.1707
     10 O          64.8340   87.7678   14.9179 O.2     1  UNL1       -0.2916
     11 C          64.5069   85.2270   14.4850 C.3     1  UNL1        0.0693
     12 C          63.9097   84.1132   13.6771 C.3     1  UNL1        0.0141
     13 C          63.0424   84.4264   12.4941 C.3     1  UNL1        0.0411
     14 C          63.0993   88.3942   12.5518 C.3     1  UNL1        0.1049
     15 H          61.5129   85.4355   10.4056 H       1  UNL1        0.1471
     16 C          63.6965   89.5080   13.3597 C.ar    1  UNL1        0.1312
     17 C          63.2600   89.9357   14.7296 C.ar    1  UNL1        0.0373
     18 C          64.1288   91.0817   15.1561 C.ar    1  UNL1        0.0472
     19 C          65.1022   91.3623   14.0499 C.ar    1  UNL1        0.1774
     20 O          64.8350   90.3896   12.9397 O.2     1  UNL1       -0.4506
     21 S          66.1575   92.4282   14.0533 S.3     1  UNL1       -0.0117
     22 C          66.4282   93.2195   12.8081 C.2     1  UNL1        0.1967
     23 N          66.1313   94.6760   12.6071 N.2     1  UNL1       -0.2196
     24 C          66.5629   95.0500   11.2200 C.2     1  UNL1        0.1000
     25 C          66.5156   96.3480   10.4698 C.2     1  UNL1        0.0202
     26 C          67.0319   96.4205    9.0633 C.2     1  UNL1        0.0001
     27 C          67.5955   95.1952    8.4071 C.2     1  UNL1        0.0147
     28 C          67.6429   93.8971    9.1573 C.3     1  UNL1        0.2242
     29 F          68.2065   92.6717    8.5011 F       1  UNL1       -0.2258
     30 C          67.1266   93.8246   10.5638 C.2     1  UNL1        0.1153
     31 N          67.0433   92.6933   11.5453 N.2     1  UNL1       -0.2207
     32 C          60.0546   87.4560    8.4092 C.2     1  UNL1        0.3569
     33 O          59.0885   88.1857    7.5236 O.2     1  UNL1       -0.2435
     34 O          60.2499   85.9775    8.2483 O.3     1  UNL1       -0.4446
     35 C          62.6733   85.1592    7.7928 C.3     1  UNL1        0.0513
     36 C          61.2884   85.4569    7.2994 C.3     1  UNL1        0.2089
@<TRIPOS>BOND
     1    35    36    1
     2    36    34    1
     3    34    32    1
     4    32    33    2
     5    32     1    1
     6     1     2    2
     7     2     3    1
     8     3     4    2
     9     4     5    1
    10     5     6    1
    11     6     7    1
    12     7     8    2
    13     8     9    1
    14     9    10    2
    15     9    11    1
    16    11    12    1
    17    12    13    1
    18     8    14    1
    19    14    16    1
    20    16    17   ar
    21    17    18   ar
    22    18    19   ar
    23    19    21    1
    24    21    22    1
    25    22    23    2
    26    23    24    1
    27    24    25    2
    28    25    26    1
    29    26    27    2
    30    27    28    1
    31    28    29    1
    32    28    30    1
    33    30    31    2
    34    19    20   ar
    35     5     1    1
    36    13     7    1
    37    20    16   ar
    38    14     4    1
    39    31    22    1
    40    30    24    1
    41     6    15    1
