@<TRIPOS>MOLECULE
*****
 46 51 0 0 0
SMALL
GASTEIGER

@<TRIPOS>ATOM
      1 C          59.3451   89.0591    7.5051 C.3     1  UNL1        0.1543
      2 O          59.5974   88.8868   10.4895 O.2     1  UNL1       -0.2526
      3 C          60.6307   89.6246    9.6909 C.2     1  UNL1        0.3043
      4 N          60.5045   89.7108    8.1987 N.am    1  UNL1       -0.2822
      5 N          61.7901   90.2763   10.3844 N.am    1  UNL1       -0.2641
      6 C          61.9162   90.1901   11.8766 C.3     1  UNL1        0.0967
      7 C          63.0756   90.8418   12.5702 C.3     1  UNL1        0.0418
      8 C          64.1089   91.5797   11.7716 C.3     1  UNL1        0.0848
      9 C          63.9828   91.6659   10.2793 C.3     1  UNL1        0.0418
     10 C          62.8234   91.0142    9.5858 C.3     1  UNL1        0.0967
     11 H          61.1827   90.1951    7.6745 H       1  UNL1        0.1514
     12 N          65.2683   92.2314   12.4651 N.am    1  UNL1       -0.2422
     13 C          66.3997   92.9569   11.7990 C.2     1  UNL1        0.3310
     14 O          66.5701   93.1582   10.3224 O.2     1  UNL1       -0.2501
     15 N          67.3306   93.4459   12.8687 N.am    1  UNL1       -0.1647
     16 C          66.7746   93.0226   14.1960 C.2     1  UNL1        0.0706
     17 C          67.2642   93.2236   15.5995 C.3     1  UNL1        0.0705
     18 C          66.4794   92.6740   16.7536 C.2     1  UNL1       -0.0199
     19 C          65.2049   91.9234   16.5042 C.2     1  UNL1       -0.0029
     20 C          64.7152   91.7223   15.1007 C.2     1  UNL1        0.0156
     21 C          65.5001   92.2719   13.9466 C.2     1  UNL1        0.0668
     22 C          58.4824   89.8585    6.5740 C.2     1  UNL1        0.2439
     23 O          56.9890   89.8040    6.7028 O.2     1  UNL1       -0.2731
     24 N          59.1132   90.7124    5.5143 N.am    1  UNL1       -0.2781
     25 C          58.2505   91.5118    4.5834 C.3     1  UNL1        0.0948
     26 C          58.8813   92.3656    3.5237 C.3     1  UNL1        0.0375
     27 C          60.3747   92.4202    3.3949 C.3     1  UNL1        0.0609
     28 C          61.2375   91.6208    4.3260 C.3     1  UNL1        0.0375
     29 C          60.6067   90.7669    5.3857 C.3     1  UNL1        0.0948
     30 N          61.0055   93.2741    2.3352 N.3     1  UNL1       -0.2738
     31 C          62.2020   92.7731    1.5820 C.3     1  UNL1        0.0720
     32 C          62.8328   93.6270    0.5223 C.3     1  UNL1        0.0174
     33 C          62.2670   94.9820    0.2158 C.3     1  UNL1        0.0029
     34 C          61.0704   95.4830    0.9690 C.3     1  UNL1        0.0174
     35 C          60.4397   94.6291    2.0287 C.3     1  UNL1        0.0720
     36 C          59.0484   87.6081    7.7425 C.3     1  UNL1        0.0554
     37 C          60.1666   86.6519    8.0346 C.ar    1  UNL1       -0.0188
     38 C          60.6382   86.4578    9.4452 C.ar    1  UNL1        0.0056
     39 C          61.7565   85.5016    9.7373 C.ar    1  UNL1        0.0684
     40 BR         62.2281   85.3075   11.1479 Br      1  UNL1       -0.0458
     41 C          62.4030   84.7396    8.6187 C.ar    1  UNL1        0.1458
     42 O          63.5213   83.7834    8.9107 O.3     1  UNL1       -0.5045
     43 C          61.9314   84.9338    7.2081 C.ar    1  UNL1        0.0684
     44 BR         62.5780   84.1717    6.0894 Br      1  UNL1       -0.0458
     45 C          60.8132   85.8899    6.9160 C.ar    1  UNL1        0.0056
     46 H          63.8159   83.6621    9.7918 H       1  UNL1        0.2922
@<TRIPOS>BOND
     1     2     3    2
     2     3     4   am
     3     4     1    1
     4     1    36    1
     5    36    37    1
     6    37    38   ar
     7    38    39   ar
     8    39    40    1
     9    39    41   ar
    10    41    42    1
    11    41    43   ar
    12    43    44    1
    13    43    45   ar
    14     1    22    1
    15    22    23    2
    16    22    24   am
    17    24    25    1
    18    25    26    1
    19    26    27    1
    20    27    30    1
    21    30    31    1
    22    31    32    1
    23    32    33    1
    24    33    34    1
    25    34    35    1
    26    27    28    1
    27    28    29    1
    28     3     5   am
    29     5     6    1
    30     6     7    1
    31     7     8    1
    32     8    12    1
    33    12    13   am
    34    13    14    2
    35    13    15    1
    36    15    16    2
    37    16    17    1
    38    17    18    1
    39    18    19    2
    40    19    20    1
    41    20    21    2
    42     8     9    1
    43     9    10    1
    44    45    37   ar
    45    29    24    1
    46    10     5    1
    47    35    30    1
    48    21    12    1
    49    21    16    1
    50     4    11    1
    51    42    46    1
@<TRIPOS>MOLECULE
*****
 46 51 0 0 0
SMALL
GASTEIGER

@<TRIPOS>ATOM
      1 C          59.9689   89.3073    7.6162 C.3     1  UNL1        0.1543
      2 O          58.2370   90.9946    5.8401 O.2     1  UNL1       -0.2526
      3 C          59.7005   90.8513    5.5439 C.2     1  UNL1        0.3043
      4 N          60.5664   90.0077    6.4319 N.am    1  UNL1       -0.2822
      5 N          60.2981   91.5517    4.3596 N.am    1  UNL1       -0.2641
      6 C          59.4321   92.3952    3.4717 C.3     1  UNL1        0.0967
      7 C          60.0296   93.0956    2.2874 C.3     1  UNL1        0.0418
      8 C          61.4931   92.9524    1.9911 C.3     1  UNL1        0.0848
      9 C          62.3591   92.1088    2.8791 C.3     1  UNL1        0.0418
     10 C          61.7615   91.4085    4.0634 C.3     1  UNL1        0.0967
     11 H          61.5269   89.9137    6.2374 H       1  UNL1        0.1514
     12 N          62.0906   93.6528    0.8069 N.am    1  UNL1       -0.2422
     13 C          61.6526   93.5024   -0.6199 C.2     1  UNL1        0.3310
     14 O          60.5401   92.6253   -1.1128 O.2     1  UNL1       -0.2501
     15 N          62.5224   94.3832   -1.4671 N.am    1  UNL1       -0.1647
     16 C          63.4980   95.0779   -0.5640 C.2     1  UNL1        0.0706
     17 C          64.5948   96.0632   -0.8397 C.3     1  UNL1        0.0705
     18 C          65.4249   96.5971    0.2898 C.2     1  UNL1       -0.0199
     19 C          65.1581   96.1457    1.6952 C.2     1  UNL1       -0.0029
     20 C          64.0612   95.1604    1.9711 C.2     1  UNL1        0.0156
     21 C          63.2312   94.6265    0.8414 C.2     1  UNL1        0.0668
     22 C          59.9275   87.8086    7.6588 C.2     1  UNL1        0.2439
     23 O          59.0848   87.0533    6.6743 O.2     1  UNL1       -0.2731
     24 N          60.7288   87.0650    8.6860 N.am    1  UNL1       -0.2781
     25 C          60.6874   85.5662    8.7286 C.3     1  UNL1        0.0948
     26 C          61.4887   84.8227    9.7557 C.3     1  UNL1        0.0375
     27 C          62.3315   85.5780   10.7403 C.3     1  UNL1        0.0609
     28 C          62.3729   87.0769   10.6977 C.3     1  UNL1        0.0375
     29 C          61.5716   87.8204    9.6705 C.3     1  UNL1        0.0948
     30 N          63.1328   84.8345   11.7674 N.3     1  UNL1       -0.2738
     31 C          63.5967   83.4356   11.4883 C.3     1  UNL1        0.0720
     32 C          64.3980   82.6921   12.5154 C.3     1  UNL1        0.0174
     33 C          64.7355   83.3474   13.8218 C.3     1  UNL1        0.0029
     34 C          64.2715   84.7464   14.1010 C.3     1  UNL1        0.0174
     35 C          63.4702   85.4899   13.0738 C.3     1  UNL1        0.0720
     36 C          59.4128   90.1058    8.7577 C.3     1  UNL1        0.0554
     37 C          60.0963   90.0823   10.0927 C.ar    1  UNL1       -0.0188
     38 C          59.3710   89.5606   11.2976 C.ar    1  UNL1        0.0056
     39 C          60.0546   89.5370   12.6326 C.ar    1  UNL1        0.0684
     40 BR         59.3293   89.0153   13.8375 Br      1  UNL1       -0.0458
     41 C          61.4634   90.0351   12.7626 C.ar    1  UNL1        0.1458
     42 O          62.1471   90.0116   14.0976 O.3     1  UNL1       -0.5045
     43 C          62.1888   90.5568   11.5577 C.ar    1  UNL1        0.0684
     44 BR         63.5977   91.0550   11.6878 Br      1  UNL1       -0.0458
     45 C          61.5052   90.5804   10.2227 C.ar    1  UNL1        0.0056
     46 H          61.6940   89.6857   14.8503 H       1  UNL1        0.2922
@<TRIPOS>BOND
     1     2     3    2
     2     3     4   am
     3     4     1    1
     4     1    36    1
     5    36    37    1
     6    37    38   ar
     7    38    39   ar
     8    39    40    1
     9    39    41   ar
    10    41    42    1
    11    41    43   ar
    12    43    44    1
    13    43    45   ar
    14     1    22    1
    15    22    23    2
    16    22    24   am
    17    24    25    1
    18    25    26    1
    19    26    27    1
    20    27    30    1
    21    30    31    1
    22    31    32    1
    23    32    33    1
    24    33    34    1
    25    34    35    1
    26    27    28    1
    27    28    29    1
    28     3     5   am
    29     5     6    1
    30     6     7    1
    31     7     8    1
    32     8    12    1
    33    12    13   am
    34    13    14    2
    35    13    15    1
    36    15    16    2
    37    16    17    1
    38    17    18    1
    39    18    19    2
    40    19    20    1
    41    20    21    2
    42     8     9    1
    43     9    10    1
    44    45    37   ar
    45    29    24    1
    46    10     5    1
    47    35    30    1
    48    21    12    1
    49    21    16    1
    50     4    11    1
    51    42    46    1
@<TRIPOS>MOLECULE
*****
 46 51 0 0 0
SMALL
GASTEIGER

@<TRIPOS>ATOM
      1 C          60.4784   89.3625    8.3771 C.3     1  UNL1        0.1543
      2 O          58.3213   90.5017    6.6309 O.2     1  UNL1       -0.2526
      3 C          59.7588   90.6162    6.2182 C.2     1  UNL1        0.3043
      4 N          60.8374   90.0466    7.0913 N.am    1  UNL1       -0.2822
      5 N          60.1179   91.3002    4.9325 N.am    1  UNL1       -0.2641
      6 C          59.0393   91.8698    4.0594 C.3     1  UNL1        0.0967
      7 C          59.3982   92.5539    2.7736 C.3     1  UNL1        0.0418
      8 C          60.8358   92.6684    2.3610 C.3     1  UNL1        0.0848
      9 C          61.9145   92.0988    3.2341 C.3     1  UNL1        0.0418
     10 C          61.5554   91.4147    4.5198 C.3     1  UNL1        0.0967
     11 H          61.7809   90.1218    6.8205 H       1  UNL1        0.1514
     12 N          61.1948   93.3524    1.0752 N.am    1  UNL1       -0.2422
     13 C          62.3689   94.2603    0.8574 C.2     1  UNL1        0.3310
     14 O          63.3900   94.6435    1.8873 O.2     1  UNL1       -0.2501
     15 N          62.3425   94.7177   -0.5709 N.am    1  UNL1       -0.1647
     16 C          61.1522   94.0925   -1.2359 C.2     1  UNL1        0.0706
     17 C          60.6226   94.1825   -2.6364 C.3     1  UNL1        0.0705
     18 C          59.3836   93.4288   -3.0196 C.2     1  UNL1       -0.0199
     19 C          58.6742   92.5850   -2.0023 C.2     1  UNL1       -0.0029
     20 C          59.2039   92.4949   -0.6017 C.2     1  UNL1        0.0156
     21 C          60.4429   93.2487   -0.2186 C.2     1  UNL1        0.0668
     22 C          60.3027   87.8733    8.4107 C.2     1  UNL1        0.2439
     23 O          59.3929   87.2031    7.4243 O.2     1  UNL1       -0.2731
     24 N          61.0368   87.0542    9.4306 N.am    1  UNL1       -0.2781
     25 C          60.8610   85.5649    9.4641 C.3     1  UNL1        0.0948
     26 C          61.5950   84.7458   10.4840 C.3     1  UNL1        0.0375
     27 C          62.5049   85.4160   11.4705 C.3     1  UNL1        0.0609
     28 C          62.6806   86.9054   11.4370 C.3     1  UNL1        0.0375
     29 C          61.9466   87.7245   10.4171 C.3     1  UNL1        0.0948
     30 N          63.2389   84.5970   12.4904 N.3     1  UNL1       -0.2738
     31 C          63.8094   85.2552   13.7115 C.3     1  UNL1        0.0720
     32 C          64.5434   84.4361   14.7315 C.3     1  UNL1        0.0174
     33 C          64.7070   82.9587   14.5303 C.3     1  UNL1        0.0029
     34 C          64.1365   82.3004   13.3091 C.3     1  UNL1        0.0174
     35 C          63.4024   83.1195   12.2891 C.3     1  UNL1        0.0720
     36 C          60.2952   90.1678    9.6293 C.3     1  UNL1        0.0554
     37 C          61.4751   90.4743   10.5033 C.ar    1  UNL1       -0.0188
     38 C          62.6278   91.2639    9.9575 C.ar    1  UNL1        0.0056
     39 C          63.8077   91.5704   10.8315 C.ar    1  UNL1        0.0684
     40 BR         64.9604   92.3600   10.2857 Br      1  UNL1       -0.0458
     41 C          63.8349   91.0872   12.2512 C.ar    1  UNL1        0.1458
     42 O          65.0148   91.3937   13.1253 O.3     1  UNL1       -0.5045
     43 C          62.6823   90.2976   12.7970 C.ar    1  UNL1        0.0684
     44 BR         62.7095   89.8145   14.2169 Br      1  UNL1       -0.0458
     45 C          61.5023   89.9911   11.9230 C.ar    1  UNL1        0.0056
     46 H          65.7349   91.8869   12.7844 H       1  UNL1        0.2922
@<TRIPOS>BOND
     1     2     3    2
     2     3     4   am
     3     4     1    1
     4     1    36    1
     5    36    37    1
     6    37    38   ar
     7    38    39   ar
     8    39    40    1
     9    39    41   ar
    10    41    42    1
    11    41    43   ar
    12    43    44    1
    13    43    45   ar
    14     1    22    1
    15    22    23    2
    16    22    24   am
    17    24    25    1
    18    25    26    1
    19    26    27    1
    20    27    30    1
    21    30    31    1
    22    31    32    1
    23    32    33    1
    24    33    34    1
    25    34    35    1
    26    27    28    1
    27    28    29    1
    28     3     5   am
    29     5     6    1
    30     6     7    1
    31     7     8    1
    32     8    12    1
    33    12    13   am
    34    13    14    2
    35    13    15    1
    36    15    16    2
    37    16    17    1
    38    17    18    1
    39    18    19    2
    40    19    20    1
    41    20    21    2
    42     8     9    1
    43     9    10    1
    44    45    37   ar
    45    29    24    1
    46    10     5    1
    47    35    30    1
    48    21    12    1
    49    21    16    1
    50     4    11    1
    51    42    46    1
@<TRIPOS>MOLECULE
*****
 46 51 0 0 0
SMALL
GASTEIGER

@<TRIPOS>ATOM
      1 C          60.0360   89.1753    8.3976 C.3     1  UNL1        0.1543
      2 O          58.0063   90.4516    6.5944 O.2     1  UNL1       -0.2526
      3 C          59.4635   90.5109    6.2438 C.2     1  UNL1        0.3043
      4 N          60.4783   89.8727    7.1454 N.am    1  UNL1       -0.2822
      5 N          59.9059   91.2083    4.9916 N.am    1  UNL1       -0.2641
      6 C          58.8911   91.8464    4.0901 C.3     1  UNL1        0.0967
      7 C          59.3334   92.5438    2.8379 C.3     1  UNL1        0.0418
      8 C          60.7907   92.6030    2.4873 C.3     1  UNL1        0.0848
      9 C          61.8056   91.9649    3.3889 C.3     1  UNL1        0.0418
     10 C          61.3632   91.2675    4.6410 C.3     1  UNL1        0.0967
     11 H          61.4348   89.9116    6.9153 H       1  UNL1        0.1514
     12 N          61.2331   93.3004    1.2351 N.am    1  UNL1       -0.2422
     13 C          62.4499   94.1657    1.0908 C.2     1  UNL1        0.3310
     14 O          63.4378   94.4855    2.1732 O.2     1  UNL1       -0.2501
     15 N          62.5052   94.6551   -0.3261 N.am    1  UNL1       -0.1647
     16 C          61.3227   94.0922   -1.0574 C.2     1  UNL1        0.0706
     17 C          60.8603   94.2339   -2.4773 C.3     1  UNL1        0.0705
     18 C          59.6116   93.5383   -2.9323 C.2     1  UNL1       -0.0199
     19 C          58.8253   92.7011   -1.9675 C.2     1  UNL1       -0.0029
     20 C          59.2878   92.5594   -0.5475 C.2     1  UNL1        0.0156
     21 C          60.5365   93.2550   -0.0926 C.2     1  UNL1        0.0668
     22 C          59.9606   89.9317    9.6907 C.2     1  UNL1        0.2439
     23 O          58.6264   90.3192   10.2561 O.2     1  UNL1       -0.2731
     24 N          61.2193   90.3006   10.4183 N.am    1  UNL1       -0.2781
     25 C          61.1438   91.0571   11.7114 C.3     1  UNL1        0.0948
     26 C          62.4025   91.4260   12.4390 C.3     1  UNL1        0.0375
     27 C          63.7367   91.0385   11.8736 C.3     1  UNL1        0.0609
     28 C          63.8122   90.2820   10.5804 C.3     1  UNL1        0.0375
     29 C          62.5535   89.9131    9.8528 C.3     1  UNL1        0.0948
     30 N          64.9955   91.4074   12.6012 N.3     1  UNL1       -0.2738
     31 C          65.9997   92.3125   11.9514 C.3     1  UNL1        0.0720
     32 C          67.2584   92.6815   12.6791 C.3     1  UNL1        0.0174
     33 C          67.5130   92.1453   14.0566 C.3     1  UNL1        0.0029
     34 C          66.5087   91.2401   14.7065 C.3     1  UNL1        0.0174
     35 C          65.2500   90.8712   13.9788 C.3     1  UNL1        0.0720
     36 C          59.6690   87.7214    8.3566 C.3     1  UNL1        0.0554
     37 C          60.7153   86.6765    8.6086 C.ar    1  UNL1       -0.0188
     38 C          61.1326   86.3564   10.0133 C.ar    1  UNL1        0.0056
     39 C          62.1788   85.3115   10.2653 C.ar    1  UNL1        0.0684
     40 BR         62.5961   84.9914   11.6701 Br      1  UNL1       -0.0458
     41 C          62.8076   84.5866    9.1125 C.ar    1  UNL1        0.1458
     42 O          63.8538   83.5416    9.3644 O.3     1  UNL1       -0.5045
     43 C          62.3903   84.9066    7.7077 C.ar    1  UNL1        0.0684
     44 BR         63.0192   84.1816    6.5548 Br      1  UNL1       -0.0458
     45 C          61.3441   85.9516    7.4557 C.ar    1  UNL1        0.0056
     46 H          64.1146   83.3416   10.2419 H       1  UNL1        0.2922
@<TRIPOS>BOND
     1     2     3    2
     2     3     4   am
     3     4     1    1
     4     1    36    1
     5    36    37    1
     6    37    38   ar
     7    38    39   ar
     8    39    40    1
     9    39    41   ar
    10    41    42    1
    11    41    43   ar
    12    43    44    1
    13    43    45   ar
    14     1    22    1
    15    22    23    2
    16    22    24   am
    17    24    25    1
    18    25    26    1
    19    26    27    1
    20    27    30    1
    21    30    31    1
    22    31    32    1
    23    32    33    1
    24    33    34    1
    25    34    35    1
    26    27    28    1
    27    28    29    1
    28     3     5   am
    29     5     6    1
    30     6     7    1
    31     7     8    1
    32     8    12    1
    33    12    13   am
    34    13    14    2
    35    13    15    1
    36    15    16    2
    37    16    17    1
    38    17    18    1
    39    18    19    2
    40    19    20    1
    41    20    21    2
    42     8     9    1
    43     9    10    1
    44    45    37   ar
    45    29    24    1
    46    10     5    1
    47    35    30    1
    48    21    12    1
    49    21    16    1
    50     4    11    1
    51    42    46    1
@<TRIPOS>MOLECULE
*****
 46 51 0 0 0
SMALL
GASTEIGER

@<TRIPOS>ATOM
      1 C          60.0136   89.0807    8.5072 C.3     1  UNL1        0.1543
      2 O          57.9341   90.2658    6.6985 O.2     1  UNL1       -0.2526
      3 C          59.3893   90.4117    6.3650 C.2     1  UNL1        0.3043
      4 N          60.4290   89.8191    7.2694 N.am    1  UNL1       -0.2822
      5 N          59.8047   91.1500    5.1272 N.am    1  UNL1       -0.2641
      6 C          58.7650   91.7425    4.2229 C.3     1  UNL1        0.0967
      7 C          59.1804   92.4809    2.9850 C.3     1  UNL1        0.0418
      8 C          60.6355   92.6268    2.6515 C.3     1  UNL1        0.0848
      9 C          61.6754   92.0342    3.5559 C.3     1  UNL1        0.0418
     10 C          61.2599   91.2959    4.7937 C.3     1  UNL1        0.0967
     11 H          61.3841   89.9148    7.0505 H       1  UNL1        0.1514
     12 N          61.0510   93.3651    1.4137 N.am    1  UNL1       -0.2422
     13 C          60.1397   93.8300    0.3166 C.2     1  UNL1        0.3310
     14 O          58.6529   93.6381    0.2649 O.2     1  UNL1       -0.2501
     15 N          60.9761   94.5205   -0.7195 N.am    1  UNL1       -0.1647
     16 C          62.4044   94.4823   -0.2629 C.2     1  UNL1        0.0706
     17 C          63.6689   95.0056   -0.8772 C.3     1  UNL1        0.0705
     18 C          64.9796   94.8148   -0.1732 C.2     1  UNL1       -0.0199
     19 C          65.0259   94.1008    1.1452 C.2     1  UNL1       -0.0029
     20 C          63.7614   93.5775    1.7596 C.2     1  UNL1        0.0156
     21 C          62.4507   93.7683    1.0555 C.2     1  UNL1        0.0668
     22 C          59.9461   89.7994    9.8221 C.2     1  UNL1        0.2439
     23 O          58.6149   90.1066   10.4413 O.2     1  UNL1       -0.2731
     24 N          61.2097   90.2109   10.5177 N.am    1  UNL1       -0.2781
     25 C          61.1421   90.9296   11.8326 C.3     1  UNL1        0.0948
     26 C          62.4057   91.3411   12.5282 C.3     1  UNL1        0.0375
     27 C          63.7370   91.0339   11.9090 C.3     1  UNL1        0.0609
     28 C          63.8046   90.3152   10.5940 C.3     1  UNL1        0.0375
     29 C          62.5409   89.9037    9.8984 C.3     1  UNL1        0.0948
     30 N          65.0006   91.4455   12.6046 N.3     1  UNL1       -0.2738
     31 C          65.2907   90.9475   13.9894 C.3     1  UNL1        0.0720
     32 C          66.5543   91.3591   14.6850 C.3     1  UNL1        0.0174
     33 C          67.5279   92.2686   13.9958 C.3     1  UNL1        0.0029
     34 C          67.2377   92.7665   12.6109 C.3     1  UNL1        0.0174
     35 C          65.9741   92.3550   11.9152 C.3     1  UNL1        0.0720
     36 C          59.6658   87.6237    8.4301 C.3     1  UNL1        0.0554
     37 C          60.7275   86.5866    8.6476 C.ar    1  UNL1       -0.0188
     38 C          61.1725   86.2493   10.0398 C.ar    1  UNL1        0.0056
     39 C          62.2342   85.2123   10.2573 C.ar    1  UNL1        0.0684
     40 BR         62.6792   84.8750   11.6495 Br      1  UNL1       -0.0458
     41 C          62.8508   84.5125    9.0826 C.ar    1  UNL1        0.1458
     42 O          63.9126   83.4754    9.3000 O.3     1  UNL1       -0.5045
     43 C          62.4058   84.8498    7.6904 C.ar    1  UNL1        0.0684
     44 BR         63.0226   84.1500    6.5156 Br      1  UNL1       -0.0458
     45 C          61.3441   85.8869    7.4729 C.ar    1  UNL1        0.0056
     46 H          64.1906   83.2647   10.1696 H       1  UNL1        0.2922
@<TRIPOS>BOND
     1     2     3    2
     2     3     4   am
     3     4     1    1
     4     1    36    1
     5    36    37    1
     6    37    38   ar
     7    38    39   ar
     8    39    40    1
     9    39    41   ar
    10    41    42    1
    11    41    43   ar
    12    43    44    1
    13    43    45   ar
    14     1    22    1
    15    22    23    2
    16    22    24   am
    17    24    25    1
    18    25    26    1
    19    26    27    1
    20    27    30    1
    21    30    31    1
    22    31    32    1
    23    32    33    1
    24    33    34    1
    25    34    35    1
    26    27    28    1
    27    28    29    1
    28     3     5   am
    29     5     6    1
    30     6     7    1
    31     7     8    1
    32     8    12    1
    33    12    13   am
    34    13    14    2
    35    13    15    1
    36    15    16    2
    37    16    17    1
    38    17    18    1
    39    18    19    2
    40    19    20    1
    41    20    21    2
    42     8     9    1
    43     9    10    1
    44    45    37   ar
    45    29    24    1
    46    10     5    1
    47    35    30    1
    48    21    12    1
    49    21    16    1
    50     4    11    1
    51    42    46    1
@<TRIPOS>MOLECULE
*****
 46 51 0 0 0
SMALL
GASTEIGER

@<TRIPOS>ATOM
      1 C          59.6130   93.2307    1.1366 C.3     1  UNL1        0.1543
      2 O          57.4213   92.4204    3.0182 O.2     1  UNL1       -0.2526
      3 C          58.8425   92.0440    3.3157 C.2     1  UNL1        0.3043
      4 N          59.9383   92.4491    2.3749 N.am    1  UNL1       -0.2822
      5 N          59.1679   91.2625    4.5539 N.am    1  UNL1       -0.2641
      6 C          58.0721   90.8574    5.4946 C.3     1  UNL1        0.0967
      7 C          58.3974   90.0758    6.7330 C.3     1  UNL1        0.0418
      8 C          59.8186   89.6994    7.0305 C.3     1  UNL1        0.0848
      9 C          60.9145   90.1045    6.0897 C.3     1  UNL1        0.0418
     10 C          60.5891   90.8861    4.8514 C.3     1  UNL1        0.0967
     11 H          60.8711   92.2021    2.5702 H       1  UNL1        0.1514
     12 N          60.1440   88.9178    8.2687 N.am    1  UNL1       -0.2422
     13 C          59.5563   87.5929    8.6550 C.2     1  UNL1        0.3310
     14 O          58.5401   86.8169    7.8707 O.2     1  UNL1       -0.2501
     15 N          60.1633   87.1802    9.9631 N.am    1  UNL1       -0.1647
     16 C          61.1261   88.2501   10.3854 C.2     1  UNL1        0.0706
     17 C          62.0122   88.3851   11.5882 C.3     1  UNL1        0.0705
     18 C          62.8863   89.5941   11.7438 C.2     1  UNL1       -0.0199
     19 C          62.8744   90.6681   10.6967 C.2     1  UNL1       -0.0029
     20 C          61.9883   90.5330    9.4938 C.2     1  UNL1        0.0156
     21 C          61.1142   89.3240    9.3383 C.2     1  UNL1        0.0668
     22 C          60.2383   94.5756    0.9127 C.2     1  UNL1        0.2439
     23 O          59.8831   95.7261    1.8073 O.2     1  UNL1       -0.2731
     24 N          61.2187   94.7702   -0.2058 N.am    1  UNL1       -0.2781
     25 C          61.8439   96.1151   -0.4296 C.3     1  UNL1        0.0948
     26 C          62.8243   96.3097   -1.5481 C.3     1  UNL1        0.0375
     27 C          63.1795   95.1592   -2.4427 C.3     1  UNL1        0.0609
     28 C          62.5542   93.8142   -2.2188 C.3     1  UNL1        0.0375
     29 C          61.5738   93.6196   -1.1004 C.3     1  UNL1        0.0948
     30 N          64.1599   95.3538   -3.5611 N.3     1  UNL1       -0.2738
     31 C          64.3542   94.2744   -4.5845 C.3     1  UNL1        0.0720
     32 C          65.3346   94.4690   -5.7029 C.3     1  UNL1        0.0174
     33 C          66.1207   95.7429   -5.7981 C.3     1  UNL1        0.0029
     34 C          65.9264   96.8223   -4.7747 C.3     1  UNL1        0.0174
     35 C          64.9460   96.6278   -3.6562 C.3     1  UNL1        0.0720
     36 C          58.6624   92.6672    0.1223 C.3     1  UNL1        0.0554
     37 C          58.1623   93.5306   -0.9978 C.ar    1  UNL1       -0.0188
     38 C          58.6429   93.2943   -2.3989 C.ar    1  UNL1        0.0056
     39 C          58.1428   94.1577   -3.5190 C.ar    1  UNL1        0.0684
     40 BR         58.6234   93.9214   -4.9201 Br      1  UNL1       -0.0458
     41 C          57.1622   95.2573   -3.2378 C.ar    1  UNL1        0.1458
     42 O          56.6620   96.1207   -4.3579 O.3     1  UNL1       -0.5045
     43 C          56.6816   95.4936   -1.8367 C.ar    1  UNL1        0.0684
     44 BR         55.7009   96.5933   -1.5556 Br      1  UNL1       -0.0458
     45 C          57.1817   94.6302   -0.7166 C.ar    1  UNL1        0.0056
     46 H          56.9622   95.9731   -5.2331 H       1  UNL1        0.2922
@<TRIPOS>BOND
     1     2     3    2
     2     3     4   am
     3     4     1    1
     4     1    36    1
     5    36    37    1
     6    37    38   ar
     7    38    39   ar
     8    39    40    1
     9    39    41   ar
    10    41    42    1
    11    41    43   ar
    12    43    44    1
    13    43    45   ar
    14     1    22    1
    15    22    23    2
    16    22    24   am
    17    24    25    1
    18    25    26    1
    19    26    27    1
    20    27    30    1
    21    30    31    1
    22    31    32    1
    23    32    33    1
    24    33    34    1
    25    34    35    1
    26    27    28    1
    27    28    29    1
    28     3     5   am
    29     5     6    1
    30     6     7    1
    31     7     8    1
    32     8    12    1
    33    12    13   am
    34    13    14    2
    35    13    15    1
    36    15    16    2
    37    16    17    1
    38    17    18    1
    39    18    19    2
    40    19    20    1
    41    20    21    2
    42     8     9    1
    43     9    10    1
    44    45    37   ar
    45    29    24    1
    46    10     5    1
    47    35    30    1
    48    21    12    1
    49    21    16    1
    50     4    11    1
    51    42    46    1
