@<TRIPOS>MOLECULE
*****
 25 28 0 0 0
SMALL
GASTEIGER

@<TRIPOS>ATOM
      1 C          63.8166   88.4344   15.3376 C.3     1  UNL1        0.1084
      2 C          63.3830   89.4330   16.3695 C.3     1  UNL1        0.0966
      3 C          63.8090   90.7942   15.9050 C.2     1  UNL1        0.2299
      4 O          63.5785   92.0859   16.6319 O.2     1  UNL1       -0.2745
      5 N          64.5059   90.6368   14.5861 N.am    1  UNL1       -0.2581
      6 C          64.5106   89.1784   14.2355 C.3     1  UNL1        0.1079
      7 C          65.0947   91.7436   13.7626 C.ar    1  UNL1        0.0540
      8 C          66.0222   92.7379   14.3960 C.ar    1  UNL1        0.0172
      9 C          66.6110   93.8448   13.5724 C.ar    1  UNL1        0.0309
     10 C          66.2724   93.9572   12.1156 C.ar    1  UNL1        0.1402
     11 F          66.8612   95.0641   11.2920 F       1  UNL1       -0.2042
     12 C          65.3449   92.9630   11.4821 C.ar    1  UNL1        0.0309
     13 C          64.7561   91.8562   12.3056 C.ar    1  UNL1        0.0172
     14 C          63.2584   84.6401   14.7401 C.ar    1  UNL1        0.2033
     15 N          63.2502   84.7018   16.2388 N.ar    1  UNL1       -0.0560
     16 O          63.4583   86.1306   16.6451 O.2     1  UNL1       -0.3370
     17 C          63.5951   86.9520   15.3974 C.ar    1  UNL1        0.2383
     18 N          63.4716   86.0308   14.2201 N.ar    1  UNL1       -0.1907
     19 C          63.9674   82.0897   10.2687 C.3     1  UNL1        0.0310
     20 C          63.4385   82.1294   11.6718 C.ar    1  UNL1       -0.0218
     21 C          62.7353   80.9336   12.2424 C.ar    1  UNL1       -0.0043
     22 C          62.2065   80.9733   13.6456 C.ar    1  UNL1       -0.0002
     23 C          62.3808   82.2088   14.4781 C.ar    1  UNL1        0.0031
     24 C          63.0840   83.4045   13.9075 C.ar    1  UNL1        0.0388
     25 C          63.6128   83.3649   12.5044 C.ar    1  UNL1       -0.0011
@<TRIPOS>BOND
     1    19    20    1
     2    20    21   ar
     3    21    22   ar
     4    22    23   ar
     5    23    24   ar
     6    24    14    1
     7    14    15   ar
     8    15    16   ar
     9    16    17   ar
    10    17     1    1
    11     1     2    1
    12     2     3    1
    13     3     4    2
    14     3     5   am
    15     5     7    1
    16     7     8   ar
    17     8     9   ar
    18     9    10   ar
    19    10    11    1
    20    10    12   ar
    21    12    13   ar
    22     5     6    1
    23    17    18   ar
    24    24    25   ar
    25    25    20   ar
    26    18    14   ar
    27     6     1    1
    28    13     7   ar
@<TRIPOS>MOLECULE
*****
 25 28 0 0 0
SMALL
GASTEIGER

@<TRIPOS>ATOM
      1 C          63.9553   86.5372   14.7300 C.3     1  UNL1        0.1084
      2 C          64.1125   85.5098   15.8115 C.3     1  UNL1        0.0966
      3 C          63.9791   84.1534   15.1851 C.2     1  UNL1        0.2299
      4 O          64.0695   82.8387   15.9016 O.2     1  UNL1       -0.2745
      5 N          63.7395   84.3425   13.7165 N.am    1  UNL1       -0.2581
      6 C          63.7247   85.8158   13.4353 C.3     1  UNL1        0.1079
      7 C          63.5482   83.2501   12.7066 C.ar    1  UNL1        0.0540
      8 C          62.7433   82.0345   13.0600 C.ar    1  UNL1        0.0172
      9 C          62.5520   80.9420   12.0501 C.ar    1  UNL1        0.0309
     10 C          63.1655   81.0651   10.6869 C.ar    1  UNL1        0.1402
     11 F          62.9741   79.9726    9.6769 F       1  UNL1       -0.2042
     12 C          63.9703   82.2806   10.3335 C.ar    1  UNL1        0.0309
     13 C          64.1616   83.3731   11.3433 C.ar    1  UNL1        0.0172
     14 C          64.6138   90.3611   14.6336 C.ar    1  UNL1        0.2033
     15 N          63.6134   90.2673   15.7474 N.ar    1  UNL1       -0.0560
     16 O          63.2449   88.8234   15.9191 O.2     1  UNL1       -0.3370
     17 C          64.0176   88.0249   14.9114 C.ar    1  UNL1        0.2383
     18 N          64.8636   88.9753   14.1170 N.ar    1  UNL1       -0.1907
     19 C          65.5564   93.6766   10.7453 C.3     1  UNL1        0.0310
     20 C          65.7236   93.2776   12.1816 C.ar    1  UNL1       -0.0218
     21 C          66.5291   94.1374   13.1099 C.ar    1  UNL1       -0.0043
     22 C          66.6962   93.7384   14.5462 C.ar    1  UNL1       -0.0002
     23 C          66.0578   92.4797   15.0541 C.ar    1  UNL1        0.0031
     24 C          65.2522   91.6199   14.1258 C.ar    1  UNL1        0.0388
     25 C          65.0851   92.0189   12.6895 C.ar    1  UNL1       -0.0011
@<TRIPOS>BOND
     1    19    20    1
     2    20    21   ar
     3    21    22   ar
     4    22    23   ar
     5    23    24   ar
     6    24    14    1
     7    14    15   ar
     8    15    16   ar
     9    16    17   ar
    10    17     1    1
    11     1     2    1
    12     2     3    1
    13     3     4    2
    14     3     5   am
    15     5     7    1
    16     7     8   ar
    17     8     9   ar
    18     9    10   ar
    19    10    11    1
    20    10    12   ar
    21    12    13   ar
    22     5     6    1
    23    17    18   ar
    24    24    25   ar
    25    25    20   ar
    26    18    14   ar
    27     6     1    1
    28    13     7   ar
@<TRIPOS>MOLECULE
*****
 25 28 0 0 0
SMALL
GASTEIGER

@<TRIPOS>ATOM
      1 C          64.3130   89.4390   15.1132 C.3     1  UNL1        0.1084
      2 C          63.4540   89.2436   16.3272 C.3     1  UNL1        0.0966
      3 C          63.1177   87.7852   16.4273 C.2     1  UNL1        0.2299
      4 O          62.2776   87.1452   17.4925 O.2     1  UNL1       -0.2745
      5 N          63.7689   87.0792   15.2751 N.am    1  UNL1       -0.2581
      6 C          64.5077   88.1013   14.4630 C.3     1  UNL1        0.1079
      7 C          63.6944   85.6093   14.9859 C.ar    1  UNL1        0.0540
      8 C          62.6261   84.7724   15.6251 C.ar    1  UNL1        0.0172
      9 C          62.5516   83.3024   15.3358 C.ar    1  UNL1        0.0309
     10 C          63.5453   82.6694   14.4076 C.ar    1  UNL1        0.1402
     11 F          63.4708   81.1994   14.1184 F       1  UNL1       -0.2042
     12 C          64.6136   83.5062   13.7684 C.ar    1  UNL1        0.0309
     13 C          64.6881   84.9762   14.0576 C.ar    1  UNL1        0.0172
     14 C          65.8299   92.4614   13.2082 C.ar    1  UNL1        0.2033
     15 N          65.6661   93.0381   14.5832 N.ar    1  UNL1       -0.0560
     16 O          65.0779   91.9761   15.4642 O.2     1  UNL1       -0.3370
     17 C          64.8782   90.7430   14.6336 C.ar    1  UNL1        0.2383
     18 N          65.3430   91.0430   13.2394 N.ar    1  UNL1       -0.1907
     19 C          68.5851   92.3994    8.8031 C.3     1  UNL1        0.0310
     20 C          67.7610   93.1465    9.8094 C.ar    1  UNL1       -0.0218
     21 C          67.4905   94.6096    9.6196 C.ar    1  UNL1       -0.0043
     22 C          66.6664   95.3567   10.6260 C.ar    1  UNL1       -0.0002
     23 C          66.1129   94.6407   11.8222 C.ar    1  UNL1        0.0031
     24 C          66.3834   93.1776   12.0120 C.ar    1  UNL1        0.0388
     25 C          67.2075   92.4305   11.0056 C.ar    1  UNL1       -0.0011
@<TRIPOS>BOND
     1    19    20    1
     2    20    21   ar
     3    21    22   ar
     4    22    23   ar
     5    23    24   ar
     6    24    14    1
     7    14    15   ar
     8    15    16   ar
     9    16    17   ar
    10    17     1    1
    11     1     2    1
    12     2     3    1
    13     3     4    2
    14     3     5   am
    15     5     7    1
    16     7     8   ar
    17     8     9   ar
    18     9    10   ar
    19    10    11    1
    20    10    12   ar
    21    12    13   ar
    22     5     6    1
    23    17    18   ar
    24    24    25   ar
    25    25    20   ar
    26    18    14   ar
    27     6     1    1
    28    13     7   ar
@<TRIPOS>MOLECULE
*****
 25 28 0 0 0
SMALL
GASTEIGER

@<TRIPOS>ATOM
      1 C          63.8796   89.3876   13.9030 C.3     1  UNL1        0.1084
      2 C          63.1307   90.0458   15.0236 C.3     1  UNL1        0.0966
      3 C          64.0154   91.1033   15.6142 C.2     1  UNL1        0.2299
      4 O          63.6658   92.0068   16.7594 O.2     1  UNL1       -0.2745
      5 N          65.3112   91.0987   14.8586 N.am    1  UNL1       -0.2581
      6 C          65.2273   90.0384   13.8010 C.3     1  UNL1        0.1079
      7 C          66.4848   91.9968   15.1156 C.ar    1  UNL1        0.0540
      8 C          67.6753   91.4787   15.8670 C.ar    1  UNL1        0.0172
      9 C          68.8489   92.3769   16.1239 C.ar    1  UNL1        0.0309
     10 C          68.8321   93.7929   15.6296 C.ar    1  UNL1        0.1402
     11 F          70.0057   94.6910   15.8866 F       1  UNL1       -0.2042
     12 C          67.6416   94.3110   14.8783 C.ar    1  UNL1        0.0309
     13 C          66.4680   93.4129   14.6213 C.ar    1  UNL1        0.0172
     14 C          62.3036   87.0633   11.2236 C.ar    1  UNL1        0.2033
     15 N          62.8698   86.0582   12.1823 N.ar    1  UNL1       -0.0560
     16 O          63.5291   86.8065   13.3027 O.2     1  UNL1       -0.3370
     17 C          63.3704   88.2742   13.0364 C.ar    1  UNL1        0.2383
     18 N          62.6129   88.4329   11.7515 N.ar    1  UNL1       -0.1907
     19 C          62.0808   84.7187    6.5918 C.3     1  UNL1        0.0310
     20 C          61.4474   85.5810    7.6431 C.ar    1  UNL1       -0.0218
     21 C          60.0692   86.1332    7.4299 C.ar    1  UNL1       -0.0043
     22 C          59.4357   86.9955    8.4812 C.ar    1  UNL1       -0.0002
     23 C          60.1805   87.3055    9.7458 C.ar    1  UNL1        0.0031
     24 C          61.5587   86.7533    9.9590 C.ar    1  UNL1        0.0388
     25 C          62.1922   85.8910    8.9077 C.ar    1  UNL1       -0.0011
@<TRIPOS>BOND
     1    19    20    1
     2    20    21   ar
     3    21    22   ar
     4    22    23   ar
     5    23    24   ar
     6    24    14    1
     7    14    15   ar
     8    15    16   ar
     9    16    17   ar
    10    17     1    1
    11     1     2    1
    12     2     3    1
    13     3     4    2
    14     3     5   am
    15     5     7    1
    16     7     8   ar
    17     8     9   ar
    18     9    10   ar
    19    10    11    1
    20    10    12   ar
    21    12    13   ar
    22     5     6    1
    23    17    18   ar
    24    24    25   ar
    25    25    20   ar
    26    18    14   ar
    27     6     1    1
    28    13     7   ar
@<TRIPOS>MOLECULE
*****
 25 28 0 0 0
SMALL
GASTEIGER

@<TRIPOS>ATOM
      1 C          63.8918   89.2389   13.9532 C.3     1  UNL1        0.1084
      2 C          63.1318   89.8958   15.0671 C.3     1  UNL1        0.0966
      3 C          63.9938   90.9820   15.6389 C.2     1  UNL1        0.2299
      4 O          63.6274   91.8937   16.7722 O.2     1  UNL1       -0.2745
      5 N          65.2867   90.9964   14.8784 N.am    1  UNL1       -0.2581
      6 C          65.2236   89.9191   13.8366 C.3     1  UNL1        0.1079
      7 C          66.4400   91.9250   15.1178 C.ar    1  UNL1        0.0540
      8 C          67.6391   91.4497   15.8837 C.ar    1  UNL1        0.0172
      9 C          68.7925   92.3784   16.1231 C.ar    1  UNL1        0.0309
     10 C          68.7468   93.7822   15.5966 C.ar    1  UNL1        0.1402
     11 F          69.9003   94.7109   15.8360 F       1  UNL1       -0.2042
     12 C          67.5478   94.2575   14.8307 C.ar    1  UNL1        0.0309
     13 C          66.3944   93.3289   14.5913 C.ar    1  UNL1        0.0172
     14 C          62.9945   85.8640   12.2589 C.ar    1  UNL1        0.2033
     15 N          62.3194   86.8384   11.3397 N.ar    1  UNL1       -0.0560
     16 O          62.5733   88.2212   11.8625 O.2     1  UNL1       -0.3370
     17 C          63.4054   88.1015   13.1048 C.ar    1  UNL1        0.2383
     18 N          63.6657   86.6447   13.3498 N.ar    1  UNL1       -0.1907
     19 C          61.8525   81.1561   14.1382 C.3     1  UNL1        0.0310
     20 C          62.4268   82.0172   13.0525 C.ar    1  UNL1       -0.0218
     21 C          63.0045   81.3854   11.8208 C.ar    1  UNL1       -0.0043
     22 C          63.5788   82.2465   10.7351 C.ar    1  UNL1       -0.0002
     23 C          63.5755   83.7394   10.8811 C.ar    1  UNL1        0.0031
     24 C          62.9978   84.3711   12.1128 C.ar    1  UNL1        0.0388
     25 C          62.4235   83.5100   13.1985 C.ar    1  UNL1       -0.0011
@<TRIPOS>BOND
     1    19    20    1
     2    20    21   ar
     3    21    22   ar
     4    22    23   ar
     5    23    24   ar
     6    24    14    1
     7    14    15   ar
     8    15    16   ar
     9    16    17   ar
    10    17     1    1
    11     1     2    1
    12     2     3    1
    13     3     4    2
    14     3     5   am
    15     5     7    1
    16     7     8   ar
    17     8     9   ar
    18     9    10   ar
    19    10    11    1
    20    10    12   ar
    21    12    13   ar
    22     5     6    1
    23    17    18   ar
    24    24    25   ar
    25    25    20   ar
    26    18    14   ar
    27     6     1    1
    28    13     7   ar
@<TRIPOS>MOLECULE
*****
 25 28 0 0 0
SMALL
GASTEIGER

@<TRIPOS>ATOM
      1 C          62.2276   89.4243   11.6375 C.3     1  UNL1        0.1084
      2 C          61.1083   90.1120   10.9134 C.3     1  UNL1        0.0966
      3 C          60.7036   89.2466    9.7570 C.2     1  UNL1        0.2299
      4 O          59.6200   89.5504    8.7653 O.2     1  UNL1       -0.2745
      5 N          61.5728   88.0242    9.7663 N.am    1  UNL1       -0.2581
      6 C          62.5147   88.1340   10.9285 C.3     1  UNL1        0.1079
      7 C          61.5110   86.8909    8.7856 C.ar    1  UNL1        0.0540
      8 C          60.2349   86.6034    8.0514 C.ar    1  UNL1        0.0172
      9 C          60.1730   85.4700    7.0706 C.ar    1  UNL1        0.0309
     10 C          61.3871   84.6244    6.8241 C.ar    1  UNL1        0.1402
     11 F          61.3252   83.4911    5.8433 F       1  UNL1       -0.2042
     12 C          62.6631   84.9119    7.5583 C.ar    1  UNL1        0.0309
     13 C          62.7251   86.0452    8.5391 C.ar    1  UNL1        0.0172
     14 C          64.6076   90.9319   14.3074 C.ar    1  UNL1        0.2033
     15 N          63.4423   90.5200   15.1573 N.ar    1  UNL1       -0.0560
     16 O          62.4089   89.9052   14.2607 O.2     1  UNL1       -0.3370
     17 C          62.9356   89.9370   12.8565 C.ar    1  UNL1        0.2383
     18 N          64.2944   90.5715   12.8854 N.ar    1  UNL1       -0.1907
     19 C          69.6397   92.0535   13.6590 C.3     1  UNL1        0.0310
     20 C          68.3814   92.1495   14.4698 C.ar    1  UNL1       -0.0218
     21 C          68.3807   92.9023   15.7672 C.ar    1  UNL1       -0.0043
     22 C          67.1224   92.9983   16.5780 C.ar    1  UNL1       -0.0002
     23 C          65.8647   92.3415   16.0914 C.ar    1  UNL1        0.0031
     24 C          65.8654   91.5887   14.7940 C.ar    1  UNL1        0.0388
     25 C          67.1237   91.4927   13.9832 C.ar    1  UNL1       -0.0011
@<TRIPOS>BOND
     1    19    20    1
     2    20    21   ar
     3    21    22   ar
     4    22    23   ar
     5    23    24   ar
     6    24    14    1
     7    14    15   ar
     8    15    16   ar
     9    16    17   ar
    10    17     1    1
    11     1     2    1
    12     2     3    1
    13     3     4    2
    14     3     5   am
    15     5     7    1
    16     7     8   ar
    17     8     9   ar
    18     9    10   ar
    19    10    11    1
    20    10    12   ar
    21    12    13   ar
    22     5     6    1
    23    17    18   ar
    24    24    25   ar
    25    25    20   ar
    26    18    14   ar
    27     6     1    1
    28    13     7   ar
@<TRIPOS>MOLECULE
*****
 25 28 0 0 0
SMALL
GASTEIGER

@<TRIPOS>ATOM
      1 C          63.8231   90.9570   11.8634 C.3     1  UNL1        0.1084
      2 C          64.2000   92.1929   11.1015 C.3     1  UNL1        0.0966
      3 C          65.3443   92.8476   11.8171 C.2     1  UNL1        0.2299
      4 O          66.0367   94.1116   11.4015 O.2     1  UNL1       -0.2745
      5 N          65.6745   92.0163   13.0212 N.am    1  UNL1       -0.2581
      6 C          64.7344   90.8479   13.0498 C.3     1  UNL1        0.1079
      7 C          66.7552   92.3032   14.0210 C.ar    1  UNL1        0.0540
      8 C          66.3961   92.7751   15.3989 C.ar    1  UNL1        0.0172
      9 C          67.4768   93.0620   16.3988 C.ar    1  UNL1        0.0309
     10 C          68.9165   92.8769   16.0209 C.ar    1  UNL1        0.1402
     11 F          69.9973   93.1638   17.0208 F       1  UNL1       -0.2042
     12 C          69.2757   92.4050   14.6431 C.ar    1  UNL1        0.0309
     13 C          68.1950   92.1181   13.6432 C.ar    1  UNL1        0.0172
     14 C          61.3774   88.3859   10.2906 C.ar    1  UNL1        0.2033
     15 N          60.7043   88.6613   11.6025 N.ar    1  UNL1       -0.0560
     16 O          61.5384   89.6580   12.3514 O.2     1  UNL1       -0.3370
     17 C          62.7272   89.9985   11.5023 C.ar    1  UNL1        0.2383
     18 N          62.6277   89.2124   10.2287 N.ar    1  UNL1       -0.1907
     19 C          62.3030   84.6080    6.8452 C.3     1  UNL1        0.0310
     20 C          61.3493   85.5596    7.5047 C.ar    1  UNL1       -0.0218
     21 C          59.9048   85.5740    7.1009 C.ar    1  UNL1       -0.0043
     22 C          58.9511   86.5257    7.7604 C.ar    1  UNL1       -0.0002
     23 C          59.4420   87.4629    8.8236 C.ar    1  UNL1        0.0031
     24 C          60.8865   87.4486    9.2274 C.ar    1  UNL1        0.0388
     25 C          61.8402   86.4969    8.5679 C.ar    1  UNL1       -0.0011
@<TRIPOS>BOND
     1    19    20    1
     2    20    21   ar
     3    21    22   ar
     4    22    23   ar
     5    23    24   ar
     6    24    14    1
     7    14    15   ar
     8    15    16   ar
     9    16    17   ar
    10    17     1    1
    11     1     2    1
    12     2     3    1
    13     3     4    2
    14     3     5   am
    15     5     7    1
    16     7     8   ar
    17     8     9   ar
    18     9    10   ar
    19    10    11    1
    20    10    12   ar
    21    12    13   ar
    22     5     6    1
    23    17    18   ar
    24    24    25   ar
    25    25    20   ar
    26    18    14   ar
    27     6     1    1
    28    13     7   ar
@<TRIPOS>MOLECULE
*****
 25 28 0 0 0
SMALL
GASTEIGER

@<TRIPOS>ATOM
      1 C          64.2172   88.4677   14.3304 C.3     1  UNL1        0.1084
      2 C          63.5987   89.4395   13.3697 C.3     1  UNL1        0.0966
      3 C          64.4184   90.6955   13.3887 C.2     1  UNL1        0.2299
      4 O          64.1586   91.9303   12.5777 O.2     1  UNL1       -0.2745
      5 N          65.5435   90.5000   14.3613 N.am    1  UNL1       -0.2581
      6 C          65.4191   89.1231   14.9432 C.3     1  UNL1        0.1079
      7 C          66.6064   91.5049   14.6935 C.ar    1  UNL1        0.0540
      8 C          67.8334   91.6098   13.8369 C.ar    1  UNL1        0.0172
      9 C          68.8963   92.6148   14.1691 C.ar    1  UNL1        0.0309
     10 C          68.7322   93.5148   15.3578 C.ar    1  UNL1        0.1402
     11 F          69.7951   94.5198   15.6900 F       1  UNL1       -0.2042
     12 C          67.5053   93.4099   16.2143 C.ar    1  UNL1        0.0309
     13 C          66.4424   92.4050   15.8822 C.ar    1  UNL1        0.0172
     14 C          63.0819   84.7562   14.3690 C.ar    1  UNL1        0.2033
     15 N          62.8320   85.1506   15.7945 N.ar    1  UNL1       -0.0560
     16 O          63.2268   86.5889   15.9536 O.2     1  UNL1       -0.3370
     17 C          63.7208   87.0834   14.6263 C.ar    1  UNL1        0.2383
     18 N          63.6312   85.9508   13.6470 N.ar    1  UNL1       -0.1907
     19 C          63.5145   81.4426   10.3898 C.3     1  UNL1        0.0310
     20 C          63.0435   81.7477   11.7809 C.ar    1  UNL1       -0.0218
     21 C          62.3180   80.7012   12.5735 C.ar    1  UNL1       -0.0043
     22 C          61.8470   81.0063   13.9646 C.ar    1  UNL1       -0.0002
     23 C          62.1017   82.3579   14.5631 C.ar    1  UNL1        0.0031
     24 C          62.8273   83.4045   13.7705 C.ar    1  UNL1        0.0388
     25 C          63.2982   83.0994   12.3794 C.ar    1  UNL1       -0.0011
@<TRIPOS>BOND
     1    19    20    1
     2    20    21   ar
     3    21    22   ar
     4    22    23   ar
     5    23    24   ar
     6    24    14    1
     7    14    15   ar
     8    15    16   ar
     9    16    17   ar
    10    17     1    1
    11     1     2    1
    12     2     3    1
    13     3     4    2
    14     3     5   am
    15     5     7    1
    16     7     8   ar
    17     8     9   ar
    18     9    10   ar
    19    10    11    1
    20    10    12   ar
    21    12    13   ar
    22     5     6    1
    23    17    18   ar
    24    24    25   ar
    25    25    20   ar
    26    18    14   ar
    27     6     1    1
    28    13     7   ar
@<TRIPOS>MOLECULE
*****
 25 28 0 0 0
SMALL
GASTEIGER

@<TRIPOS>ATOM
      1 C          63.5725   89.1653   12.3907 C.3     1  UNL1        0.1084
      2 C          63.3896   90.3785   11.5278 C.3     1  UNL1        0.0966
      3 C          64.2750   91.4651   12.0619 C.2     1  UNL1        0.2299
      4 O          64.4070   92.8501   11.5014 O.2     1  UNL1       -0.2745
      5 N          65.0052   90.9234   13.2550 N.am    1  UNL1       -0.2581
      6 C          64.5710   89.5021   13.4582 C.3     1  UNL1        0.1079
      7 C          65.9956   91.6717   14.0970 C.ar    1  UNL1        0.0540
      8 C          65.6215   92.1130   15.4810 C.ar    1  UNL1        0.0172
      9 C          66.6120   92.8614   16.3230 C.ar    1  UNL1        0.0309
     10 C          67.9764   93.1685   15.7810 C.ar    1  UNL1        0.1402
     11 F          68.9669   93.9169   16.6230 F       1  UNL1       -0.2042
     12 C          68.3506   92.7272   14.3971 C.ar    1  UNL1        0.0309
     13 C          67.3602   91.9789   13.5550 C.ar    1  UNL1        0.0172
     14 C          62.3734   85.4747   12.3076 C.ar    1  UNL1        0.2033
     15 N          61.2489   86.1610   11.5904 N.ar    1  UNL1       -0.0560
     16 O          61.5612   87.6271   11.5342 O.2     1  UNL1       -0.3370
     17 C          62.8788   87.8468   12.2167 C.ar    1  UNL1        0.2383
     18 N          63.3807   86.5166   12.6947 N.ar    1  UNL1       -0.1907
     19 C          63.1074   80.6123   10.6288 C.3     1  UNL1        0.0310
     20 C          62.8401   81.5734   11.7490 C.ar    1  UNL1       -0.0218
     21 C          62.6725   81.0644   13.1500 C.ar    1  UNL1       -0.0043
     22 C          62.4052   82.0255   14.2702 C.ar    1  UNL1       -0.0002
     23 C          62.3055   83.4955   13.9894 C.ar    1  UNL1        0.0031
     24 C          62.4731   84.0045   12.5885 C.ar    1  UNL1        0.0388
     25 C          62.7404   83.0434   11.4683 C.ar    1  UNL1       -0.0011
@<TRIPOS>BOND
     1    19    20    1
     2    20    21   ar
     3    21    22   ar
     4    22    23   ar
     5    23    24   ar
     6    24    14    1
     7    14    15   ar
     8    15    16   ar
     9    16    17   ar
    10    17     1    1
    11     1     2    1
    12     2     3    1
    13     3     4    2
    14     3     5   am
    15     5     7    1
    16     7     8   ar
    17     8     9   ar
    18     9    10   ar
    19    10    11    1
    20    10    12   ar
    21    12    13   ar
    22     5     6    1
    23    17    18   ar
    24    24    25   ar
    25    25    20   ar
    26    18    14   ar
    27     6     1    1
    28    13     7   ar
