@<TRIPOS>MOLECULE
*****
 30 32 0 0 0
SMALL
GASTEIGER

@<TRIPOS>ATOM
      1 C          63.0625   89.0589   12.1559 C.ar    1  UNL1        0.0201
      2 C          62.1779   89.2708   10.9632 C.ar    1  UNL1        0.0760
      3 N          61.6876   87.9291   10.5056 N.ar    1  UNL1       -0.3240
      4 C          60.7757   87.6733    9.3424 C.3     1  UNL1        0.1305
      5 C          62.2692   86.8880   11.4155 C.ar    1  UNL1        0.0601
      6 C          62.1347   85.3944   11.4471 C.ar    1  UNL1        0.0217
      7 C          62.8501   84.5991   12.4986 C.ar    1  UNL1        0.0563
      8 C          63.6999   85.2974   13.5185 C.ar    1  UNL1        0.0047
      9 C          63.8343   86.7910   13.4869 C.ar    1  UNL1        0.0016
     10 C          63.1189   87.5863   12.4354 C.ar    1  UNL1        0.0173
     11 C          65.1762   92.2764   14.4862 C.ar    1  UNL1        0.2357
     12 N          64.3669   91.2382   15.2053 N.ar    1  UNL1       -0.2094
     13 C          63.6624   90.1658   14.4285 C.ar    1  UNL1        0.1021
     14 C          63.7671   90.1314   12.9327 C.ar    1  UNL1        0.0217
     15 C          64.5764   91.1696   12.2135 C.ar    1  UNL1        0.0177
     16 C          65.2810   92.2421   12.9903 C.ar    1  UNL1        0.1107
     17 CL         66.0902   93.2803   12.2710 Cl      1  UNL1       -0.0774
     18 O          65.8808   93.3489   15.2630 O.3     1  UNL1       -0.4597
     19 C          67.0698   93.0035   16.1097 C.3     1  UNL1        0.2070
     20 C          69.3809   94.1880   16.0361 C.3     1  UNL1        0.0038
     21 C          68.4534   93.1177   15.5419 C.3     1  UNL1        0.0438
     22 C          68.9096   92.1616   14.4799 C.3     1  UNL1        0.0038
     23 C          62.7157   83.1054   12.5302 C.2     1  UNL1        0.2640
     24 O          62.8715   82.3115   11.2671 O.2     1  UNL1       -0.2686
     25 N          62.4255   82.4057   13.8249 N.am    1  UNL1       -0.1852
     26 H          62.3232   82.9269   14.6539 H       1  UNL1        0.1765
     27 S          62.2911   80.9121   13.8565 S.O2    1  UNL1        0.0581
     28 C          62.1567   79.4185   13.8882 C.3     1  UNL1        0.1997
     29 O          63.7825   80.7798   13.9464 O.2     1  UNL1       -0.1543
     30 O          60.7997   81.0444   13.7667 O.2     1  UNL1       -0.1543
@<TRIPOS>BOND
     1    20    21    1
     2    21    22    1
     3    21    19    1
     4    19    18    1
     5    18    11    1
     6    11    12   ar
     7    12    13   ar
     8    13    14   ar
     9    14     1    1
    10     1     2   ar
    11     2     3   ar
    12     3     4    1
    13     3     5   ar
    14     5     6   ar
    15     6     7   ar
    16     7    23    1
    17    23    24    2
    18    23    25   am
    19    25    27    1
    20    27    28    1
    21    27    29    2
    22    27    30    2
    23     7     8   ar
    24     8     9   ar
    25     9    10   ar
    26    14    15   ar
    27    15    16   ar
    28    16    17    1
    29    16    11   ar
    30    10     1   ar
    31    10     5   ar
    32    25    26    1
@<TRIPOS>MOLECULE
*****
 30 32 0 0 0
SMALL
GASTEIGER

@<TRIPOS>ATOM
      1 C          62.5092   87.9881   11.6030 C.ar    1  UNL1        0.0201
      2 C          62.8015   86.7302   12.3661 C.ar    1  UNL1        0.0760
      3 N          63.7121   87.0803   13.5054 N.ar    1  UNL1       -0.3240
      4 C          64.2566   86.1240   14.5248 C.3     1  UNL1        0.1305
      5 C          63.9827   88.5545   13.4466 C.ar    1  UNL1        0.0601
      6 C          64.8099   89.4584   14.3117 C.ar    1  UNL1        0.0217
      7 C          64.8937   90.9235   14.0010 C.ar    1  UNL1        0.0563
      8 C          64.1503   91.4846   12.8252 C.ar    1  UNL1        0.0047
      9 C          63.3231   90.5806   11.9601 C.ar    1  UNL1        0.0016
     10 C          63.2392   89.1156   12.2708 C.ar    1  UNL1        0.0173
     11 C          59.9005   88.3210    7.9514 C.ar    1  UNL1        0.2357
     12 N          60.1938   89.5384    8.7771 N.ar    1  UNL1       -0.2094
     13 C          61.0634   89.4274    9.9943 C.ar    1  UNL1        0.1021
     14 C          61.6397   88.0991   10.3858 C.ar    1  UNL1        0.0217
     15 C          61.3463   86.8816    9.5601 C.ar    1  UNL1        0.0177
     16 C          60.4767   86.9926    8.3429 C.ar    1  UNL1        0.1107
     17 CL         60.1835   85.7752    7.5172 Cl      1  UNL1       -0.0774
     18 O          59.0309   88.4320    6.7342 O.3     1  UNL1       -0.4597
     19 C          58.2600   89.6925    6.4757 C.3     1  UNL1        0.2070
     20 C          60.2552   90.7746    5.2115 C.3     1  UNL1        0.0038
     21 C          58.7855   90.7070    5.5037 C.3     1  UNL1        0.0438
     22 C          57.8412   91.6538    4.8240 C.3     1  UNL1        0.0038
     23 C          65.7210   91.8275   14.8662 C.2     1  UNL1        0.2640
     24 O          65.1376   92.4041   16.1220 O.2     1  UNL1       -0.2686
     25 N          67.1317   92.1549   14.4754 N.am    1  UNL1       -0.1852
     26 H          67.5147   91.7765   13.6512 H       1  UNL1        0.1765
     27 S          67.9590   93.0589   15.3405 S.O2    1  UNL1        0.0581
     28 C          68.7863   93.9630   16.2056 C.3     1  UNL1        0.1997
     29 O          67.4903   94.2444   14.5500 O.2     1  UNL1       -0.1543
     30 O          68.4277   91.8735   16.1311 O.2     1  UNL1       -0.1543
@<TRIPOS>BOND
     1    20    21    1
     2    21    22    1
     3    21    19    1
     4    19    18    1
     5    18    11    1
     6    11    12   ar
     7    12    13   ar
     8    13    14   ar
     9    14     1    1
    10     1     2   ar
    11     2     3   ar
    12     3     4    1
    13     3     5   ar
    14     5     6   ar
    15     6     7   ar
    16     7    23    1
    17    23    24    2
    18    23    25   am
    19    25    27    1
    20    27    28    1
    21    27    29    2
    22    27    30    2
    23     7     8   ar
    24     8     9   ar
    25     9    10   ar
    26    14    15   ar
    27    15    16   ar
    28    16    17    1
    29    16    11   ar
    30    10     1   ar
    31    10     5   ar
    32    25    26    1
@<TRIPOS>MOLECULE
*****
 30 32 0 0 0
SMALL
GASTEIGER

@<TRIPOS>ATOM
      1 C          63.0256   89.7459   11.2317 C.ar    1  UNL1        0.0201
      2 C          61.9377   89.6604   10.2026 C.ar    1  UNL1        0.0760
      3 N          61.3222   88.2954   10.2912 N.ar    1  UNL1       -0.3240
      4 C          60.1968   87.7790    9.4445 C.3     1  UNL1        0.1305
      5 C          62.0297   87.5373   11.3751 C.ar    1  UNL1        0.0601
      6 C          61.8513   86.1465   11.9078 C.ar    1  UNL1        0.0217
      7 C          62.7257   85.6522   13.0218 C.ar    1  UNL1        0.0563
      8 C          63.7785   86.5487   13.6031 C.ar    1  UNL1        0.0047
      9 C          63.9569   87.9395   13.0704 C.ar    1  UNL1        0.0016
     10 C          63.0825   88.4338   11.9564 C.ar    1  UNL1        0.0173
     11 C          65.6569   93.3128   12.0090 C.ar    1  UNL1        0.2357
     12 N          65.0790   93.0906   10.6428 N.ar    1  UNL1       -0.2094
     13 C          64.2020   91.9016   10.3837 C.ar    1  UNL1        0.1021
     14 C          63.9027   90.9349   11.4908 C.ar    1  UNL1        0.0217
     15 C          64.4806   91.1571   12.8572 C.ar    1  UNL1        0.0177
     16 C          65.3577   92.3461   13.1162 C.ar    1  UNL1        0.1107
     17 CL         65.9355   92.5682   14.4825 Cl      1  UNL1       -0.0774
     18 O          66.5340   94.5018   12.2681 O.3     1  UNL1       -0.4597
     19 C          66.1364   95.8534   11.7534 C.3     1  UNL1        0.2070
     20 C          65.0148   96.8395    9.6275 C.3     1  UNL1        0.0038
     21 C          66.1661   96.1333   10.2800 C.3     1  UNL1        0.0438
     22 C          67.3469   95.7070    9.4592 C.3     1  UNL1        0.0038
     23 C          62.5473   84.2614   13.5546 C.2     1  UNL1        0.2640
     24 O          61.7668   84.0356   14.8154 O.2     1  UNL1       -0.2686
     25 N          63.1496   83.0964   12.8265 N.am    1  UNL1       -0.1852
     26 H          63.6619   83.2446   11.9989 H       1  UNL1        0.1765
     27 S          62.9713   81.7056   13.3592 S.O2    1  UNL1        0.0581
     28 C          62.7929   80.3147   13.8919 C.3     1  UNL1        0.1997
     29 O          61.9973   81.4086   12.2577 O.2     1  UNL1       -0.1543
     30 O          63.9452   82.0026   14.4606 O.2     1  UNL1       -0.1543
@<TRIPOS>BOND
     1    20    21    1
     2    21    22    1
     3    21    19    1
     4    19    18    1
     5    18    11    1
     6    11    12   ar
     7    12    13   ar
     8    13    14   ar
     9    14     1    1
    10     1     2   ar
    11     2     3   ar
    12     3     4    1
    13     3     5   ar
    14     5     6   ar
    15     6     7   ar
    16     7    23    1
    17    23    24    2
    18    23    25   am
    19    25    27    1
    20    27    28    1
    21    27    29    2
    22    27    30    2
    23     7     8   ar
    24     8     9   ar
    25     9    10   ar
    26    14    15   ar
    27    15    16   ar
    28    16    17    1
    29    16    11   ar
    30    10     1   ar
    31    10     5   ar
    32    25    26    1
@<TRIPOS>MOLECULE
*****
 30 32 0 0 0
SMALL
GASTEIGER

@<TRIPOS>ATOM
      1 C          72.7265   79.3952   12.4256 C.ar    1  UNL1        0.0201
      2 C          72.9613   80.1093   13.7236 C.ar    1  UNL1        0.0760
      3 N          72.7232   79.1345   14.8385 N.ar    1  UNL1       -0.3240
      4 C          72.8455   79.4251   16.3050 C.3     1  UNL1        0.1305
      5 C          72.3413   77.8179   14.2296 C.ar    1  UNL1        0.0601
      6 C          71.9919   76.4932   14.8403 C.ar    1  UNL1        0.0217
      7 C          71.6446   75.3297   13.9597 C.ar    1  UNL1        0.0563
      8 C          71.6466   75.4908   12.4684 C.ar    1  UNL1        0.0047
      9 C          71.9960   76.8155   11.8577 C.ar    1  UNL1        0.0016
     10 C          72.3433   77.9791   12.7382 C.ar    1  UNL1        0.0173
     11 C          73.1053   81.1868    8.3150 C.ar    1  UNL1        0.2357
     12 N          73.6327   79.8086    8.5840 N.ar    1  UNL1       -0.2094
     13 C          73.5065   79.2114    9.9542 C.ar    1  UNL1        0.1021
     14 C          72.8528   79.9924   11.0554 C.ar    1  UNL1        0.0217
     15 C          72.3253   81.3707   10.7864 C.ar    1  UNL1        0.0177
     16 C          72.4516   81.9678    9.4162 C.ar    1  UNL1        0.1107
     17 CL         71.9242   83.3460    9.1473 Cl      1  UNL1       -0.0774
     18 O          73.2316   81.7840    6.9448 O.3     1  UNL1       -0.4597
     19 C          72.1122   81.6381    5.9570 C.3     1  UNL1        0.2070
     20 C          72.8669   79.2982    5.1174 C.3     1  UNL1        0.0038
     21 C          71.7748   80.2868    5.4000 C.3     1  UNL1        0.0438
     22 C          70.3454   79.9242    5.1258 C.3     1  UNL1        0.0038
     23 C          71.2952   74.0049   14.5705 C.2     1  UNL1        0.2640
     24 O          70.6508   72.9398   13.7336 O.2     1  UNL1       -0.2686
     25 N          71.5901   73.7453   16.0181 N.am    1  UNL1       -0.1852
     26 H          72.0131   74.4443   16.5674 H       1  UNL1        0.1765
     27 S          71.2408   72.4206   16.6288 S.O2    1  UNL1        0.0581
     28 C          70.8914   71.0958   17.2396 C.3     1  UNL1        0.1997
     29 O          72.6420   71.9412   16.3906 O.2     1  UNL1       -0.1543
     30 O          69.8396   72.8999   16.8670 O.2     1  UNL1       -0.1543
@<TRIPOS>BOND
     1    20    21    1
     2    21    22    1
     3    21    19    1
     4    19    18    1
     5    18    11    1
     6    11    12   ar
     7    12    13   ar
     8    13    14   ar
     9    14     1    1
    10     1     2   ar
    11     2     3   ar
    12     3     4    1
    13     3     5   ar
    14     5     6   ar
    15     6     7   ar
    16     7    23    1
    17    23    24    2
    18    23    25   am
    19    25    27    1
    20    27    28    1
    21    27    29    2
    22    27    30    2
    23     7     8   ar
    24     8     9   ar
    25     9    10   ar
    26    14    15   ar
    27    15    16   ar
    28    16    17    1
    29    16    11   ar
    30    10     1   ar
    31    10     5   ar
    32    25    26    1
@<TRIPOS>MOLECULE
*****
 30 32 0 0 0
SMALL
GASTEIGER

@<TRIPOS>ATOM
      1 C          62.6497   85.8704   11.7548 C.ar    1  UNL1        0.0201
      2 C          61.8580   86.5332   10.6667 C.ar    1  UNL1        0.0760
      3 N          62.0027   88.0176   10.8268 N.ar    1  UNL1       -0.3240
      4 C          61.3762   89.0638    9.9533 C.3     1  UNL1        0.1305
      5 C          62.8838   88.2722   12.0137 C.ar    1  UNL1        0.0601
      6 C          63.3736   89.5410   12.6464 C.ar    1  UNL1        0.0217
      7 C          64.2633   89.4827   13.8526 C.ar    1  UNL1        0.0563
      8 C          64.6632   88.1556   14.4261 C.ar    1  UNL1        0.0047
      9 C          64.1734   86.8868   13.7935 C.ar    1  UNL1        0.0016
     10 C          63.2837   86.9452   12.5873 C.ar    1  UNL1        0.0173
     11 C          63.0523   81.4361   12.4071 C.ar    1  UNL1        0.2357
     12 N          63.6297   82.0685   11.1756 N.ar    1  UNL1       -0.2094
     13 C          63.4955   83.5466   10.9582 C.ar    1  UNL1        0.1021
     14 C          62.7839   84.3923   11.9722 C.ar    1  UNL1        0.0217
     15 C          62.2065   83.7599   13.2038 C.ar    1  UNL1        0.0177
     16 C          62.3407   82.2818   13.4213 C.ar    1  UNL1        0.1107
     17 CL         61.7633   81.6495   14.6528 Cl      1  UNL1       -0.0774
     18 O          63.1865   79.9581   12.6246 O.3     1  UNL1       -0.4597
     19 C          62.2917   79.0071   11.8864 C.3     1  UNL1        0.2070
     20 C          62.7642   79.3136    9.3501 C.3     1  UNL1        0.0038
     21 C          62.7262   78.4387   10.5679 C.3     1  UNL1        0.0438
     22 C          63.1225   76.9956   10.4674 C.3     1  UNL1        0.0038
     23 C          64.7532   90.7515   14.4853 C.2     1  UNL1        0.2640
     24 O          63.8985   91.4681   15.4882 O.2     1  UNL1       -0.2686
     25 N          66.0978   91.3036   14.1150 N.am    1  UNL1       -0.1852
     26 H          66.6588   90.8333   13.4568 H       1  UNL1        0.1765
     27 S          66.5877   92.5723   14.7477 S.O2    1  UNL1        0.0581
     28 C          67.0776   93.8412   15.3803 C.3     1  UNL1        0.1997
     29 O          65.8552   93.3719   13.7113 O.2     1  UNL1       -0.1543
     30 O          67.3202   91.7727   15.7840 O.2     1  UNL1       -0.1543
@<TRIPOS>BOND
     1    20    21    1
     2    21    22    1
     3    21    19    1
     4    19    18    1
     5    18    11    1
     6    11    12   ar
     7    12    13   ar
     8    13    14   ar
     9    14     1    1
    10     1     2   ar
    11     2     3   ar
    12     3     4    1
    13     3     5   ar
    14     5     6   ar
    15     6     7   ar
    16     7    23    1
    17    23    24    2
    18    23    25   am
    19    25    27    1
    20    27    28    1
    21    27    29    2
    22    27    30    2
    23     7     8   ar
    24     8     9   ar
    25     9    10   ar
    26    14    15   ar
    27    15    16   ar
    28    16    17    1
    29    16    11   ar
    30    10     1   ar
    31    10     5   ar
    32    25    26    1
@<TRIPOS>MOLECULE
*****
 30 32 0 0 0
SMALL
GASTEIGER

@<TRIPOS>ATOM
      1 C          58.9904   89.7813    6.3798 C.ar    1  UNL1        0.0201
      2 C          57.5347   90.1173    6.2456 C.ar    1  UNL1        0.0760
      3 N          57.3940   91.1436    5.1608 N.ar    1  UNL1       -0.3240
      4 C          56.1100   91.7630    4.6941 C.3     1  UNL1        0.1305
      5 C          58.7627   91.4418    4.6244 C.ar    1  UNL1        0.0601
      6 C          59.2381   92.3713    3.5473 C.ar    1  UNL1        0.0217
      7 C          60.7001   92.4587    3.2237 C.ar    1  UNL1        0.0563
      8 C          61.6868   91.6167    3.9771 C.ar    1  UNL1        0.0047
      9 C          61.2114   90.6873    5.0541 C.ar    1  UNL1        0.0016
     10 C          59.7494   90.5998    5.3778 C.ar    1  UNL1        0.0173
     11 C          60.7686   86.8347    9.2791 C.ar    1  UNL1        0.2357
     12 N          59.9258   86.3483    8.1376 N.ar    1  UNL1       -0.2094
     13 C          59.3331   87.3305    7.1712 C.ar    1  UNL1        0.1021
     14 C          59.5831   88.7991    7.3462 C.ar    1  UNL1        0.0217
     15 C          60.4260   89.2855    8.4878 C.ar    1  UNL1        0.0177
     16 C          61.0187   88.3033    9.4542 C.ar    1  UNL1        0.1107
     17 CL         61.8615   88.7898   10.5957 Cl      1  UNL1       -0.0774
     18 O          61.3613   85.8525   10.2455 O.3     1  UNL1       -0.4597
     19 C          62.6687   85.1875    9.9319 C.3     1  UNL1        0.2070
     20 C          62.7250   84.0065   12.2454 C.3     1  UNL1        0.0038
     21 C          63.1877   84.0968   10.8214 C.3     1  UNL1        0.0438
     22 C          64.1694   83.0965   10.2869 C.3     1  UNL1        0.0038
     23 C          61.1756   93.3882    2.1465 C.2     1  UNL1        0.2640
     24 O          60.4614   94.6851    1.9059 O.2     1  UNL1       -0.2686
     25 N          62.3652   93.0207    1.3101 N.am    1  UNL1       -0.1852
     26 H          62.8340   92.1695    1.4681 H       1  UNL1        0.1765
     27 S          62.8407   93.9501    0.2330 S.O2    1  UNL1        0.0581
     28 C          63.3162   94.8796   -0.8441 C.3     1  UNL1        0.1997
     29 O          63.7237   94.6477    1.2248 O.2     1  UNL1       -0.1543
     30 O          61.9577   93.2525   -0.7587 O.2     1  UNL1       -0.1543
@<TRIPOS>BOND
     1    20    21    1
     2    21    22    1
     3    21    19    1
     4    19    18    1
     5    18    11    1
     6    11    12   ar
     7    12    13   ar
     8    13    14   ar
     9    14     1    1
    10     1     2   ar
    11     2     3   ar
    12     3     4    1
    13     3     5   ar
    14     5     6   ar
    15     6     7   ar
    16     7    23    1
    17    23    24    2
    18    23    25   am
    19    25    27    1
    20    27    28    1
    21    27    29    2
    22    27    30    2
    23     7     8   ar
    24     8     9   ar
    25     9    10   ar
    26    14    15   ar
    27    15    16   ar
    28    16    17    1
    29    16    11   ar
    30    10     1   ar
    31    10     5   ar
    32    25    26    1
@<TRIPOS>MOLECULE
*****
 30 32 0 0 0
SMALL
GASTEIGER

@<TRIPOS>ATOM
      1 C          62.7241   85.7371   12.3704 C.ar    1  UNL1        0.0201
      2 C          62.1029   86.2869   11.1207 C.ar    1  UNL1        0.0760
      3 N          62.3617   87.7640   11.0856 N.ar    1  UNL1       -0.3240
      4 C          61.9174   88.7116   10.0111 C.3     1  UNL1        0.1305
      5 C          63.1430   88.1270   12.3135 C.ar    1  UNL1        0.0601
      6 C          63.6793   89.4364   12.8112 C.ar    1  UNL1        0.0217
      7 C          64.4397   89.4931   14.1029 C.ar    1  UNL1        0.0563
      8 C          64.6636   88.2404   14.8970 C.ar    1  UNL1        0.0047
      9 C          64.1273   86.9310   14.3993 C.ar    1  UNL1        0.0016
     10 C          63.3670   86.8743   13.1076 C.ar    1  UNL1        0.0173
     11 C          62.6692   81.4316   13.6782 C.ar    1  UNL1        0.2357
     12 N          62.5749   82.5267   14.6988 N.ar    1  UNL1       -0.2094
     13 C          62.5932   83.9619   14.2629 C.ar    1  UNL1        0.1021
     14 C          62.7058   84.3019   12.8063 C.ar    1  UNL1        0.0217
     15 C          62.8001   83.2067   11.7856 C.ar    1  UNL1        0.0177
     16 C          62.7818   81.7716   12.2216 C.ar    1  UNL1        0.1107
     17 CL         62.8761   80.6765   11.2009 Cl      1  UNL1       -0.0774
     18 O          62.6509   79.9965   14.1142 O.3     1  UNL1       -0.4597
     19 C          61.4546   79.1395   13.8236 C.3     1  UNL1        0.2070
     20 C          59.7870   81.1117   14.1059 C.3     1  UNL1        0.0038
     21 C          60.0775   79.6406   14.1441 C.3     1  UNL1        0.0438
     22 C          58.9910   78.6706   14.5027 C.3     1  UNL1        0.0038
     23 C          64.9761   90.8026   14.6007 C.2     1  UNL1        0.2640
     24 O          64.1534   91.6458   15.5291 O.2     1  UNL1       -0.2686
     25 N          66.3352   91.2687   14.1699 N.am    1  UNL1       -0.1852
     26 H          66.8751   90.7152   13.5605 H       1  UNL1        0.1765
     27 S          66.8716   92.5781   14.6676 S.O2    1  UNL1        0.0581
     28 C          67.4080   93.8876   15.1652 C.3     1  UNL1        0.1997
     29 O          65.9917   93.3077   13.6963 O.2     1  UNL1       -0.1543
     30 O          67.7514   91.8485   15.6389 O.2     1  UNL1       -0.1543
@<TRIPOS>BOND
     1    20    21    1
     2    21    22    1
     3    21    19    1
     4    19    18    1
     5    18    11    1
     6    11    12   ar
     7    12    13   ar
     8    13    14   ar
     9    14     1    1
    10     1     2   ar
    11     2     3   ar
    12     3     4    1
    13     3     5   ar
    14     5     6   ar
    15     6     7   ar
    16     7    23    1
    17    23    24    2
    18    23    25   am
    19    25    27    1
    20    27    28    1
    21    27    29    2
    22    27    30    2
    23     7     8   ar
    24     8     9   ar
    25     9    10   ar
    26    14    15   ar
    27    15    16   ar
    28    16    17    1
    29    16    11   ar
    30    10     1   ar
    31    10     5   ar
    32    25    26    1
@<TRIPOS>MOLECULE
*****
 30 32 0 0 0
SMALL
GASTEIGER

@<TRIPOS>ATOM
      1 C          62.6975   87.2212   11.9181 C.ar    1  UNL1        0.0201
      2 C          61.8433   88.0731   11.0266 C.ar    1  UNL1        0.0760
      3 N          62.1135   89.5101   11.3611 N.ar    1  UNL1       -0.3240
      4 C          61.4748   90.7017   10.7114 C.3     1  UNL1        0.1305
      5 C          63.1347   89.5464   12.4593 C.ar    1  UNL1        0.0601
      6 C          63.7825   90.6848   13.1902 C.ar    1  UNL1        0.0217
      7 C          64.7912   90.4086   14.2654 C.ar    1  UNL1        0.0563
      8 C          65.1521   88.9940   14.6097 C.ar    1  UNL1        0.0047
      9 C          64.5043   87.8556   13.8788 C.ar    1  UNL1        0.0016
     10 C          63.4956   88.1318   12.8035 C.ar    1  UNL1        0.0173
     11 C          62.8406   82.7235   11.9338 C.ar    1  UNL1        0.2357
     12 N          61.9384   83.4418   10.9747 N.ar    1  UNL1       -0.2094
     13 C          61.8907   84.9411   10.9695 C.ar    1  UNL1        0.1021
     14 C          62.7452   85.7220   11.9233 C.ar    1  UNL1        0.0217
     15 C          63.6475   85.0036   12.8825 C.ar    1  UNL1        0.0177
     16 C          63.6952   83.5044   12.8877 C.ar    1  UNL1        0.1107
     17 CL         64.5975   82.7861   13.8468 Cl      1  UNL1       -0.0774
     18 O          62.8883   81.2243   11.9390 O.3     1  UNL1       -0.4597
     19 C          62.4112   80.4628   13.1401 C.3     1  UNL1        0.2070
     20 C          61.6393   82.2746   14.8347 C.3     1  UNL1        0.0038
     21 C          61.3492   81.0461   14.0245 C.3     1  UNL1        0.0438
     22 C          59.9971   80.4007   14.0986 C.3     1  UNL1        0.0038
     23 C          65.4390   91.5470   14.9964 C.2     1  UNL1        0.2640
     24 O          64.6775   92.2894   16.0543 O.2     1  UNL1       -0.2686
     25 N          66.8484   91.9431   14.6696 N.am    1  UNL1       -0.1852
     26 H          67.3482   91.4558   13.9753 H       1  UNL1        0.1765
     27 S          67.4963   93.0814   15.4005 S.O2    1  UNL1        0.0581
     28 C          68.1442   94.2199   16.1315 C.3     1  UNL1        0.1997
     29 O          68.1357   92.1096   16.3474 O.2     1  UNL1       -0.1543
     30 O          66.8569   94.0533   14.4537 O.2     1  UNL1       -0.1543
@<TRIPOS>BOND
     1    20    21    1
     2    21    22    1
     3    21    19    1
     4    19    18    1
     5    18    11    1
     6    11    12   ar
     7    12    13   ar
     8    13    14   ar
     9    14     1    1
    10     1     2   ar
    11     2     3   ar
    12     3     4    1
    13     3     5   ar
    14     5     6   ar
    15     6     7   ar
    16     7    23    1
    17    23    24    2
    18    23    25   am
    19    25    27    1
    20    27    28    1
    21    27    29    2
    22    27    30    2
    23     7     8   ar
    24     8     9   ar
    25     9    10   ar
    26    14    15   ar
    27    15    16   ar
    28    16    17    1
    29    16    11   ar
    30    10     1   ar
    31    10     5   ar
    32    25    26    1
