@<TRIPOS>MOLECULE
*****
 96 102 0 0 0
SMALL
GASTEIGER

@<TRIPOS>ATOM
      1 C          61.6866   91.3496    7.2578 C.3     1  UNL1        0.1513
      2 C          62.2800   92.6634    7.6721 C.3     1  UNL1        0.0625
      3 C          63.0471   93.7210    8.4091 C.3     1  UNL1        0.1588
      4 O          62.6930   94.8960    7.5467 O.3     1  UNL1       -0.3801
      5 C          63.9198   94.4282    9.4032 C.3     1  UNL1        0.2151
      6 O          63.8258   95.8141    8.8370 O.3     1  UNL1       -0.3654
      7 N          64.8206   94.7224   10.5660 N.am    1  UNL1       -0.2797
      8 C          65.6693   94.5774   11.7942 C.2     1  UNL1        0.2447
      9 O          66.0968   96.0077   11.9408 O.2     1  UNL1       -0.2732
     10 C          66.3906   94.0059   12.9788 C.3     1  UNL1        0.1790
     11 C          66.9208   95.3747   13.2877 C.3     1  UNL1        0.1390
     12 O          66.6424   96.6249   12.5072 O.3     1  UNL1       -0.3822
     13 C          67.7782   95.2736   14.5143 C.3     1  UNL1        0.0489
     14 C          68.5078   96.4050   15.1758 C.3     1  UNL1        0.0043
     15 C          67.7780   93.8424   14.9634 C.3     1  UNL1        0.0964
     16 N          66.9205   93.0589   14.0144 N.am    1  UNL1       -0.2696
     17 C          67.2117   91.8205   14.8090 C.2     1  UNL1        0.2463
     18 O          68.0989   92.4290   15.8543 O.2     1  UNL1       -0.2730
     19 C          67.2384   90.4006   15.2921 C.3     1  UNL1        0.1759
     20 N          66.9984   88.9256   15.4207 N.am    1  UNL1       -0.2950
     21 C          66.5128   87.5263   15.1833 C.2     1  UNL1        0.2433
     22 O          67.1917   86.8549   16.3401 O.2     1  UNL1       -0.2732
     23 C          65.8248   86.3273   14.6011 C.3     1  UNL1        0.1785
     24 N          64.9957   85.4349   13.7259 N.am    1  UNL1       -0.2950
     25 C          64.0989   84.9285   12.6353 C.2     1  UNL1        0.2410
     26 O          64.0583   83.4826   13.0326 O.2     1  UNL1       -0.2733
     27 C          63.2143   84.8531   11.4262 C.3     1  UNL1        0.1543
     28 C          63.0531   83.3808   11.6638 C.3     1  UNL1        0.0602
     29 C          62.1595   82.8332   10.5906 C.3     1  UNL1        0.1324
     30 O          61.7321   81.4029   10.4440 O.3     1  UNL1       -0.3826
     31 C          61.7685   83.9670    9.6898 C.3     1  UNL1        0.1230
     32 N          62.4204   85.2154   10.2062 N.am    1  UNL1       -0.2690
     33 C          61.7878   85.9832    9.0836 C.2     1  UNL1        0.2464
     34 O          61.0581   84.8517    8.4221 O.2     1  UNL1       -0.2730
     35 C          61.3726   87.0882    8.1581 C.3     1  UNL1        0.1759
     36 N          61.2118   88.4324    7.5120 N.am    1  UNL1       -0.2951
     37 C          61.3196   89.8962    7.2027 C.2     1  UNL1        0.2408
     38 O          60.4505   89.9311    5.9807 O.2     1  UNL1       -0.2733
     39 H          63.1222   95.6933    7.8945 H       1  UNL1        0.2105
     40 H          64.3523   96.4215    9.3799 H       1  UNL1        0.2123
     41 H          64.9351   95.6895   10.4219 H       1  UNL1        0.1517
     42 H          67.1052   97.3721   12.9176 H       1  UNL1        0.2104
     43 H          67.5390   88.7586   16.2263 H       1  UNL1        0.1499
     44 H          65.1444   84.5850   14.2000 H       1  UNL1        0.1499
     45 H          61.1559   81.3155    9.6686 H       1  UNL1        0.2104
     46 H          60.6202   88.1689    6.7704 H       1  UNL1        0.1499
     47 C          61.4829   91.5855    4.6785 C.2     1  UNL1        0.2461
     48 O          62.7986   90.8851    4.5104 O.2     1  UNL1       -0.2701
     49 N          60.9269   91.8177    6.0521 N.am    1  UNL1       -0.2947
     50 H          60.0633   92.2774    6.1624 H       1  UNL1        0.1501
     51 C          59.2036   92.9900    1.0615 C.ar    1  UNL1        0.0000
     52 C          58.4863   92.2788    2.1704 C.ar    1  UNL1        0.0001
     53 C          59.2461   91.8107    3.3761 C.ar    1  UNL1        0.0045
     54 C          60.7231   92.0537    3.4727 C.ar    1  UNL1        0.0534
     55 C          61.4404   92.7649    2.3638 C.ar    1  UNL1        0.0045
     56 C          60.6807   93.2330    1.1582 C.ar    1  UNL1        0.0001
     57 C          56.9245   94.3945   -2.5555 C.ar    1  UNL1        0.0000
     58 C          57.6570   95.3847   -1.6994 C.ar    1  UNL1        0.0000
     59 C          58.4167   94.9166   -0.4938 C.ar    1  UNL1        0.0000
     60 C          58.4439   93.4582   -0.1442 C.ar    1  UNL1        0.0000
     61 C          57.7113   92.4679   -1.0003 C.ar    1  UNL1        0.0000
     62 C          56.9516   92.9361   -2.2059 C.ar    1  UNL1        0.0000
     63 C          54.6453   95.7992   -6.1725 C.ar    1  UNL1        0.1386
     64 C          55.0874   94.3692   -6.0733 C.ar    1  UNL1        0.0369
     65 C          55.8471   93.9011   -4.8677 C.ar    1  UNL1        0.0031
     66 C          56.1647   94.8627   -3.7612 C.ar    1  UNL1        0.0002
     67 C          55.7226   96.2927   -3.8604 C.ar    1  UNL1        0.0031
     68 C          54.9629   96.7609   -5.0661 C.ar    1  UNL1        0.0369
     69 O          53.8856   96.2673   -7.3782 O.3     1  UNL1       -0.4755
     70 C          52.4427   95.8938   -7.5472 C.3     1  UNL1        0.2054
     71 C          51.5128   95.9420   -6.3712 C.3     1  UNL1        0.0473
     72 C          50.2323   96.7182   -6.4589 C.3     1  UNL1        0.0038
     73 C          48.5059   96.8449   -4.5215 C.3     1  UNL1        0.0000
     74 C          48.9950   96.2024   -5.7857 C.3     1  UNL1        0.0001
     75 C          68.1336   90.5859   16.4813 C.3     1  UNL1        0.1373
     76 C          69.5600   91.0076   16.2878 C.3     1  UNL1        0.0340
     77 O          67.6025   90.3496   17.8640 O.3     1  UNL1       -0.3823
     78 H          68.3052   90.5123   18.5126 H       1  UNL1        0.2104
     79 C          60.5192   86.2862    7.2208 C.3     1  UNL1        0.1373
     80 C          59.0462   86.1569    7.4722 C.3     1  UNL1        0.0340
     81 O          61.1391   85.6135    6.0319 O.3     1  UNL1       -0.3823
     82 H          62.0916   85.7964    6.0171 H       1  UNL1        0.2104
     83 C          66.2986   85.2983   15.5844 C.3     1  UNL1        0.1681
     84 O          67.7508   84.9263   15.6394 O.3     1  UNL1       -0.3795
     85 H          68.2413   85.4395   14.9784 H       1  UNL1        0.2105
     86 C          65.3205   84.6414   16.5125 C.3     1  UNL1        0.1615
     87 O          65.7903   83.5947   17.4789 O.3     1  UNL1       -0.3775
     88 H          65.0376   83.2750   18.0005 H       1  UNL1        0.2109
     89 C          63.8725   85.0310   16.4745 C.ar    1  UNL1        0.0069
     90 C          63.3499   86.0690   17.4230 C.ar    1  UNL1        0.0012
     91 C          61.9019   86.4586   17.3850 C.ar    1  UNL1        0.0364
     92 C          60.9765   85.8102   16.3984 C.ar    1  UNL1        0.1337
     93 O          59.5284   86.1999   16.3604 O.3     1  UNL1       -0.5055
     94 C          61.4990   84.7723   15.4500 C.ar    1  UNL1        0.0364
     95 C          62.9470   84.3827   15.4880 C.ar    1  UNL1        0.0012
     96 H          59.2019   86.8482   16.9529 H       1  UNL1        0.2922
@<TRIPOS>BOND
     1    73    74    1
     2    74    72    1
     3    72    71    1
     4    71    70    1
     5    70    69    1
     6    69    63    1
     7    63    64   ar
     8    64    65   ar
     9    65    66   ar
    10    66    57    1
    11    57    58   ar
    12    58    59   ar
    13    59    60   ar
    14    60    51    1
    15    51    52   ar
    16    52    53   ar
    17    53    54   ar
    18    54    47    1
    19    47    48    2
    20    47    49   am
    21     1    49    1
    22     1     2    1
    23     2     3    1
    24     3     4    1
    25     3     5    1
    26     5     6    1
    27     5     7    1
    28     7     8   am
    29     8     9    2
    30    10     8    1
    31    10    11    1
    32    11    12    1
    33    11    13    1
    34    13    14    1
    35    13    15    1
    36    15    16    1
    37    16    17   am
    38    17    18    2
    39    17    19    1
    40    19    75    1
    41    75    76    1
    42    75    77    1
    43    19    20    1
    44    20    21   am
    45    21    22    2
    46    21    23    1
    47    23    83    1
    48    83    84    1
    49    83    86    1
    50    86    87    1
    51    86    89    1
    52    89    90   ar
    53    90    91   ar
    54    91    92   ar
    55    92    93    1
    56    92    94   ar
    57    94    95   ar
    58    23    24    1
    59    24    25   am
    60    25    26    2
    61    25    27    1
    62    27    28    1
    63    28    29    1
    64    29    30    1
    65    29    31    1
    66    31    32    1
    67    32    33   am
    68    33    34    2
    69    33    35    1
    70    35    79    1
    71    79    80    1
    72    79    81    1
    73    35    36    1
    74    36    37   am
    75    37    38    2
    76    54    55   ar
    77    55    56   ar
    78    60    61   ar
    79    61    62   ar
    80    66    67   ar
    81    67    68   ar
    82    68    63   ar
    83    62    57   ar
    84    56    51   ar
    85    37     1    1
    86    16    10    1
    87    95    89   ar
    88    32    27    1
    89    49    50    1
    90     4    39    1
    91     6    40    1
    92     7    41    1
    93    12    42    1
    94    77    78    1
    95    20    43    1
    96    84    85    1
    97    87    88    1
    98    93    96    1
    99    24    44    1
   100    30    45    1
   101    81    82    1
   102    36    46    1
@<TRIPOS>MOLECULE
*****
 96 102 0 0 0
SMALL
GASTEIGER

@<TRIPOS>ATOM
      1 C          60.9362   88.0192    7.2893 C.3     1  UNL1        0.1513
      2 C          61.0972   89.2402    8.1457 C.3     1  UNL1        0.0625
      3 C          61.3691   90.1518    9.3054 C.3     1  UNL1        0.1588
      4 O          61.0781   91.4610    8.6336 O.3     1  UNL1       -0.3801
      5 C          61.7278   90.6733   10.6653 C.3     1  UNL1        0.2151
      6 O          61.5437   92.1379   10.3989 O.3     1  UNL1       -0.3654
      7 N          62.1415   90.7582   12.1046 N.am    1  UNL1       -0.2797
      8 C          62.5732   90.3990   13.4955 C.2     1  UNL1        0.2447
      9 O          62.6410   91.7819   14.0727 O.2     1  UNL1       -0.2732
     10 C          62.9847   89.6275   14.7144 C.3     1  UNL1        0.1790
     11 C          63.1092   90.9211   15.4634 C.3     1  UNL1        0.1390
     12 O          62.8479   92.2900   14.9085 O.3     1  UNL1       -0.3822
     13 C          63.5408   90.6055   16.8649 C.3     1  UNL1        0.0489
     14 C          63.7870   91.6033   17.9575 C.3     1  UNL1        0.0043
     15 C          63.6831   89.1169   16.9819 C.3     1  UNL1        0.0964
     16 N          63.3394   88.5125   15.6528 N.am    1  UNL1       -0.2696
     17 C          63.6058   87.1528   16.2275 C.2     1  UNL1        0.2463
     18 O          63.9815   87.5680   17.6192 O.2     1  UNL1       -0.2730
     19 C          63.7603   85.6693   16.3875 C.3     1  UNL1        0.1759
     20 N          63.7890   84.1940   16.1184 N.am    1  UNL1       -0.2950
     21 C          63.6895   82.8577   15.4442 C.2     1  UNL1        0.2433
     22 O          64.0901   81.9926   16.6023 O.2     1  UNL1       -0.2732
     23 C          63.4706   81.7794   14.4248 C.3     1  UNL1        0.1785
     24 N          63.1517   81.0547   13.1508 N.am    1  UNL1       -0.2950
     25 C          62.7612   80.7481   11.7354 C.2     1  UNL1        0.2410
     26 O          62.8851   79.2541   11.7879 O.2     1  UNL1       -0.2733
     27 C          62.3337   80.8868   10.3042 C.3     1  UNL1        0.1543
     28 C          62.4010   79.3949   10.1631 C.3     1  UNL1        0.0602
     29 C          62.0161   79.0447    8.7563 C.3     1  UNL1        0.1324
     30 O          61.9483   77.6618    8.1790 O.3     1  UNL1       -0.3826
     31 C          61.7111   80.3200    8.0279 C.3     1  UNL1        0.1230
     32 N          61.9073   81.4585    8.9846 N.am    1  UNL1       -0.2690
     33 C          61.5199   82.4124    7.8939 C.2     1  UNL1        0.2464
     34 O          61.2737   81.4146    6.8012 O.2     1  UNL1       -0.2730
     35 C          61.2058   83.6637    7.1287 C.3     1  UNL1        0.1759
     36 N          60.9930   85.1013    6.7571 N.am    1  UNL1       -0.2951
     37 C          60.9004   86.5975    6.8124 C.2     1  UNL1        0.2408
     38 O          60.4696   86.8471    5.3974 O.2     1  UNL1       -0.2733
     39 H          61.2098   92.1850    9.2656 H       1  UNL1        0.2105
     40 H          61.7421   92.6405   11.2044 H       1  UNL1        0.2123
     41 H          62.1015   91.7361   12.2113 H       1  UNL1        0.1517
     42 H          63.0011   92.9535   15.5993 H       1  UNL1        0.2104
     43 H          64.0714   83.8876   17.0104 H       1  UNL1        0.1499
     44 H          63.3094   80.1341   13.4622 H       1  UNL1        0.1499
     45 H          61.6737   77.7124    7.2501 H       1  UNL1        0.2104
     46 H          60.7284   84.9725    5.8177 H       1  UNL1        0.1499
     47 C          60.9004   90.1198    5.7610 C.2     1  UNL1        0.2461
     48 O          61.7049   90.8736    6.7781 O.2     1  UNL1       -0.2701
     49 N          60.5160   88.6926    6.0166 N.am    1  UNL1       -0.2947
     50 H          59.9880   88.1979    5.3490 H       1  UNL1        0.1501
     51 C          59.6399   92.1403    1.9428 C.ar    1  UNL1        0.0000
     52 C          58.6297   91.8736    3.0190 C.ar    1  UNL1        0.0001
     53 C          59.0499   91.2001    4.2917 C.ar    1  UNL1        0.0045
     54 C          60.4803   90.7933    4.4882 C.ar    1  UNL1        0.0534
     55 C          61.4905   91.0601    3.4119 C.ar    1  UNL1        0.0045
     56 C          61.0704   91.7336    2.1392 C.ar    1  UNL1        0.0001
     57 C          58.3796   94.1608   -1.8755 C.ar    1  UNL1        0.0000
     58 C          58.9411   94.9737   -0.7468 C.ar    1  UNL1        0.0000
     59 C          59.3612   94.3002    0.5259 C.ar    1  UNL1        0.0000
     60 C          59.2198   92.8138    0.6700 C.ar    1  UNL1        0.0000
     61 C          58.6582   92.0010   -0.4587 C.ar    1  UNL1        0.0000
     62 C          58.2381   92.6745   -1.7315 C.ar    1  UNL1        0.0000
     63 C          57.1193   96.1812   -5.6938 C.ar    1  UNL1        0.1386
     64 C          56.8814   96.8549   -4.3750 C.ar    1  UNL1        0.0369
     65 C          57.3015   96.1815   -3.1022 C.ar    1  UNL1        0.0031
     66 C          57.9595   94.8343   -3.1483 C.ar    1  UNL1        0.0002
     67 C          58.1974   94.1605   -4.4672 C.ar    1  UNL1        0.0031
     68 C          57.7773   94.8340   -5.7400 C.ar    1  UNL1        0.0369
     69 O          56.6991   96.8547   -6.9666 O.3     1  UNL1       -0.4755
     70 C          55.3348   96.5994   -7.5353 C.3     1  UNL1        0.2054
     71 C          54.5522   95.3974   -7.0963 C.3     1  UNL1        0.0473
     72 C          53.8569   95.3996   -5.7671 C.3     1  UNL1        0.0038
     73 C          51.9467   96.8526   -6.7619 C.3     1  UNL1        0.0000
     74 C          52.5908   96.1829   -5.5844 C.3     1  UNL1        0.0001
     75 C          64.1820   85.6424   17.8268 C.3     1  UNL1        0.1373
     76 C          65.4962   85.0303   18.2118 C.3     1  UNL1        0.0340
     77 O          63.2896   86.2275   18.8809 O.3     1  UNL1       -0.3823
     78 H          63.7083   86.1286   19.7503 H       1  UNL1        0.2104
     79 C          60.8660   83.0390    5.8080 C.3     1  UNL1        0.1373
     80 C          61.5246   83.5316    4.5536 C.3     1  UNL1        0.0340
     81 O          59.8676   81.9215    5.7418 O.3     1  UNL1       -0.3823
     82 H          59.5401   81.7272    6.6339 H       1  UNL1        0.2104
     83 C          63.8059   80.5928   15.2790 C.3     1  UNL1        0.1681
     84 O          65.0387   80.6083   16.1335 O.3     1  UNL1       -0.3795
     85 H          65.5022   81.4524   16.0171 H       1  UNL1        0.2105
     86 C          62.9087   79.3908   15.2787 C.3     1  UNL1        0.1615
     87 O          61.8134   79.2727   14.2606 O.3     1  UNL1       -0.3775
     88 H          61.3311   78.4426   14.3993 H       1  UNL1        0.2109
     89 C          63.1065   78.3069   16.2965 C.ar    1  UNL1        0.0069
     90 C          62.8067   76.8807   15.9412 C.ar    1  UNL1        0.0012
     91 C          63.0045   75.7968   16.9590 C.ar    1  UNL1        0.0364
     92 C          63.5022   76.1391   18.3321 C.ar    1  UNL1        0.1337
     93 O          63.7001   75.0551   19.3500 O.3     1  UNL1       -0.5055
     94 C          63.8020   77.5651   18.6873 C.ar    1  UNL1        0.0364
     95 C          63.6042   78.6491   17.6695 C.ar    1  UNL1        0.0012
     96 H          63.5128   74.1642   19.1281 H       1  UNL1        0.2922
@<TRIPOS>BOND
     1    73    74    1
     2    74    72    1
     3    72    71    1
     4    71    70    1
     5    70    69    1
     6    69    63    1
     7    63    64   ar
     8    64    65   ar
     9    65    66   ar
    10    66    57    1
    11    57    58   ar
    12    58    59   ar
    13    59    60   ar
    14    60    51    1
    15    51    52   ar
    16    52    53   ar
    17    53    54   ar
    18    54    47    1
    19    47    48    2
    20    47    49   am
    21     1    49    1
    22     1     2    1
    23     2     3    1
    24     3     4    1
    25     3     5    1
    26     5     6    1
    27     5     7    1
    28     7     8   am
    29     8     9    2
    30    10     8    1
    31    10    11    1
    32    11    12    1
    33    11    13    1
    34    13    14    1
    35    13    15    1
    36    15    16    1
    37    16    17   am
    38    17    18    2
    39    17    19    1
    40    19    75    1
    41    75    76    1
    42    75    77    1
    43    19    20    1
    44    20    21   am
    45    21    22    2
    46    21    23    1
    47    23    83    1
    48    83    84    1
    49    83    86    1
    50    86    87    1
    51    86    89    1
    52    89    90   ar
    53    90    91   ar
    54    91    92   ar
    55    92    93    1
    56    92    94   ar
    57    94    95   ar
    58    23    24    1
    59    24    25   am
    60    25    26    2
    61    25    27    1
    62    27    28    1
    63    28    29    1
    64    29    30    1
    65    29    31    1
    66    31    32    1
    67    32    33   am
    68    33    34    2
    69    33    35    1
    70    35    79    1
    71    79    80    1
    72    79    81    1
    73    35    36    1
    74    36    37   am
    75    37    38    2
    76    54    55   ar
    77    55    56   ar
    78    60    61   ar
    79    61    62   ar
    80    66    67   ar
    81    67    68   ar
    82    68    63   ar
    83    62    57   ar
    84    56    51   ar
    85    37     1    1
    86    16    10    1
    87    95    89   ar
    88    32    27    1
    89    49    50    1
    90     4    39    1
    91     6    40    1
    92     7    41    1
    93    12    42    1
    94    77    78    1
    95    20    43    1
    96    84    85    1
    97    87    88    1
    98    93    96    1
    99    24    44    1
   100    30    45    1
   101    81    82    1
   102    36    46    1
