@<TRIPOS>MOLECULE
*****
 34 38 0 0 0
SMALL
GASTEIGER

@<TRIPOS>ATOM
      1 C          63.6542   86.9411   13.3237 C.2     1  UNL1        0.2506
      2 O          64.3947   87.4139   14.5394 O.2     1  UNL1       -0.2699
      3 N          63.1282   87.9358   12.3318 N.am    1  UNL1       -0.2723
      4 C          62.3877   87.4629   11.1160 C.3     1  UNL1        0.1257
      5 C          61.8617   88.4576   10.1241 C.3     1  UNL1        0.1637
      6 O          62.0763   89.9253   10.3480 O.3     1  UNL1       -0.3502
      7 C          62.8167   90.3981   11.5638 C.3     1  UNL1        0.1622
      8 C          63.3427   89.4034   12.5557 C.3     1  UNL1        0.1097
      9 C          63.6497   82.8264   10.1504 C.3     1  UNL1        0.0307
     10 C          63.4374   83.4162   11.5132 C.ar    1  UNL1       -0.0255
     11 C          63.6519   84.8837   11.7370 C.ar    1  UNL1        0.0015
     12 C          63.4397   85.4734   13.0998 C.ar    1  UNL1        0.0726
     13 C          63.0129   84.5955   14.2387 C.ar    1  UNL1        0.1069
     14 C          62.7984   83.1279   14.0149 C.ar    1  UNL1        0.0165
     15 C          63.0106   82.5383   12.6521 C.ar    1  UNL1       -0.0242
     16 C          62.7961   81.0706   12.4282 C.3     1  UNL1        0.0307
     17 N          62.8007   85.1853   15.6016 N.ar    1  UNL1       -0.1477
     18 N          63.8727   85.5024   16.6017 N.ar    1  UNL1       -0.1447
     19 C          63.2138   86.0745   17.8217 C.ar    1  UNL1        0.1446
     20 C          61.7345   86.1110   17.5756 C.ar    1  UNL1        0.1446
     21 N          61.4792   85.5614   16.2035 N.ar    1  UNL1       -0.1447
     22 C          64.0832   89.8763   13.7715 C.3     1  UNL1        0.0510
     23 C          64.9688   91.0840   13.6876 C.ar    1  UNL1        0.0071
     24 C          65.5603   91.4904   12.3704 C.ar    1  UNL1        0.0012
     25 C          66.4459   92.6981   12.2866 C.ar    1  UNL1        0.0389
     26 C          66.7400   93.4996   13.5200 C.ar    1  UNL1        0.0054
     27 C          66.1486   93.0932   14.8372 C.ar    1  UNL1        0.0294
     28 C          65.2629   91.8854   14.9210 C.ar    1  UNL1        0.1362
     29 F          64.6715   91.4790   16.2382 F       1  UNL1       -0.2045
     30 C          67.0373   93.1045   10.9694 C.ar    1  UNL1        0.2037
     31 N          67.1078   94.5017   10.4281 N.ar    1  UNL1       -0.1829
     32 C          67.7762   94.4457    9.0863 C.ar    1  UNL1        0.3164
     33 O          68.1188   93.0140    8.7985 O.2     1  UNL1       -0.3274
     34 N          67.6622   92.1851    9.9623 N.ar    1  UNL1       -0.0554
@<TRIPOS>BOND
     1     9    10    1
     2    10    11   ar
     3    11    12   ar
     4    12     1    1
     5     1     2    2
     6     1     3   am
     7     3     4    1
     8     4     5    1
     9     5     6    1
    10     6     7    1
    11     7     8    1
    12     8    22    1
    13    22    23    1
    14    23    24   ar
    15    24    25   ar
    16    25    30    1
    17    30    31   ar
    18    31    32   ar
    19    32    33   ar
    20    33    34   ar
    21    25    26   ar
    22    26    27   ar
    23    27    28   ar
    24    28    29    1
    25    12    13   ar
    26    13    17    1
    27    17    18   ar
    28    18    19   ar
    29    19    20   ar
    30    20    21   ar
    31    13    14   ar
    32    14    15   ar
    33    15    16    1
    34    15    10   ar
    35     8     3    1
    36    28    23   ar
    37    21    17   ar
    38    34    30   ar
@<TRIPOS>MOLECULE
*****
 34 38 0 0 0
SMALL
GASTEIGER

@<TRIPOS>ATOM
      1 C          63.0481   86.7866   12.7470 C.2     1  UNL1        0.2506
      2 O          63.7400   87.6568   13.7540 O.2     1  UNL1       -0.2699
      3 N          62.1540   87.4024   11.7120 N.am    1  UNL1       -0.2723
      4 C          61.4621   86.5321   10.7050 C.3     1  UNL1        0.1257
      5 C          60.5680   87.1480    9.6699 C.3     1  UNL1        0.1637
      6 O          60.3658   88.6341    9.6419 O.3     1  UNL1       -0.3502
      7 C          61.0576   89.5042   10.6489 C.3     1  UNL1        0.1622
      8 C          61.9518   88.8884   11.6839 C.3     1  UNL1        0.1097
      9 C          63.9583   82.3210   10.2509 C.3     1  UNL1        0.0307
     10 C          63.7055   83.0678   11.5270 C.ar    1  UNL1       -0.0255
     11 C          63.5032   84.5538   11.4990 C.ar    1  UNL1        0.0015
     12 C          63.2504   85.3005   12.7750 C.ar    1  UNL1        0.0726
     13 C          63.1997   84.5612   14.0792 C.ar    1  UNL1        0.1069
     14 C          63.4020   83.0752   14.1073 C.ar    1  UNL1        0.0165
     15 C          63.6548   82.3285   12.8312 C.ar    1  UNL1       -0.0242
     16 C          63.8571   80.8424   12.8592 C.3     1  UNL1        0.0307
     17 N          62.9469   85.3080   15.3554 N.ar    1  UNL1       -0.1477
     18 N          61.6531   85.3451   16.1136 N.ar    1  UNL1       -0.1447
     19 C          61.8500   86.2088   17.3241 C.ar    1  UNL1        0.1446
     20 C          63.2654   86.7054   17.3140 C.ar    1  UNL1        0.1446
     21 N          63.9432   86.1487   16.0972 N.ar    1  UNL1       -0.1447
     22 C          62.6436   89.7587   12.6909 C.3     1  UNL1        0.0510
     23 C          63.7055   90.7207   12.2472 C.ar    1  UNL1        0.0071
     24 C          64.7873   91.1355   13.1999 C.ar    1  UNL1        0.0012
     25 C          65.8491   92.0975   12.7561 C.ar    1  UNL1        0.0389
     26 C          65.8292   92.6448   11.3596 C.ar    1  UNL1        0.0054
     27 C          64.7474   92.2300   10.4069 C.ar    1  UNL1        0.0294
     28 C          63.6855   91.2679   10.8507 C.ar    1  UNL1        0.1362
     29 F          62.6037   90.8531    9.8980 F       1  UNL1       -0.2045
     30 C          66.9309   92.5123   13.7088 C.ar    1  UNL1        0.2037
     31 N          66.7436   93.3240   14.9564 N.ar    1  UNL1       -0.1829
     32 C          68.0870   93.5016   15.5998 C.ar    1  UNL1        0.3164
     33 O          69.1044   92.7997   14.7500 O.2     1  UNL1       -0.3274
     34 N          68.3900   92.1884   13.5813 N.ar    1  UNL1       -0.0554
@<TRIPOS>BOND
     1     9    10    1
     2    10    11   ar
     3    11    12   ar
     4    12     1    1
     5     1     2    2
     6     1     3   am
     7     3     4    1
     8     4     5    1
     9     5     6    1
    10     6     7    1
    11     7     8    1
    12     8    22    1
    13    22    23    1
    14    23    24   ar
    15    24    25   ar
    16    25    30    1
    17    30    31   ar
    18    31    32   ar
    19    32    33   ar
    20    33    34   ar
    21    25    26   ar
    22    26    27   ar
    23    27    28   ar
    24    28    29    1
    25    12    13   ar
    26    13    17    1
    27    17    18   ar
    28    18    19   ar
    29    19    20   ar
    30    20    21   ar
    31    13    14   ar
    32    14    15   ar
    33    15    16    1
    34    15    10   ar
    35     8     3    1
    36    28    23   ar
    37    21    17   ar
    38    34    30   ar
@<TRIPOS>MOLECULE
*****
 34 38 0 0 0
SMALL
GASTEIGER

@<TRIPOS>ATOM
      1 C          62.6560   88.7704   11.5516 C.2     1  UNL1        0.2506
      2 O          62.5847   90.2662   11.4657 O.2     1  UNL1       -0.2699
      3 N          63.3333   88.1177   12.7201 N.am    1  UNL1       -0.2723
      4 C          63.4047   86.6219   12.8060 C.3     1  UNL1        0.1257
      5 C          64.0819   85.9692   13.9745 C.3     1  UNL1        0.1637
      6 O          64.6879   86.8125   15.0571 O.3     1  UNL1       -0.3502
      7 C          64.6165   88.3083   14.9711 C.3     1  UNL1        0.1622
      8 C          63.9392   88.9609   13.8026 C.3     1  UNL1        0.1097
      9 C          63.1486   85.1331    7.8736 C.3     1  UNL1        0.0307
     10 C          62.2963   86.1086    8.6301 C.ar    1  UNL1       -0.0255
     11 C          62.9023   86.9517    9.7126 C.ar    1  UNL1        0.0015
     12 C          62.0501   87.9271   10.4691 C.ar    1  UNL1        0.0726
     13 C          60.5919   88.0594   10.1431 C.ar    1  UNL1        0.1069
     14 C          59.9860   87.2162    9.0606 C.ar    1  UNL1        0.0165
     15 C          60.8382   86.2408    8.3041 C.ar    1  UNL1       -0.0242
     16 C          60.2322   85.3975    7.2216 C.3     1  UNL1        0.0307
     17 N          59.7397   89.0348   10.8996 N.ar    1  UNL1       -0.1477
     18 N          59.5169   90.4742   10.5409 N.ar    1  UNL1       -0.1447
     19 C          58.6002   91.0712   11.5672 C.ar    1  UNL1        0.1446
     20 C          58.2565   90.0007   12.5602 C.ar    1  UNL1        0.1446
     21 N          58.9607   88.7422   12.1476 N.ar    1  UNL1       -0.1447
     22 C          63.8679   90.4568   13.7167 C.3     1  UNL1        0.0510
     23 C          65.1268   91.2612   13.5821 C.ar    1  UNL1        0.0071
     24 C          65.6542   91.6065   12.2210 C.ar    1  UNL1        0.0012
     25 C          66.9131   92.4109   12.0864 C.ar    1  UNL1        0.0389
     26 C          67.6446   92.8700   13.3129 C.ar    1  UNL1        0.0054
     27 C          67.1171   92.5247   14.6740 C.ar    1  UNL1        0.0294
     28 C          65.8581   91.7203   14.8086 C.ar    1  UNL1        0.1362
     29 F          65.3307   91.3750   16.1696 F       1  UNL1       -0.2045
     30 C          67.4406   92.7561   10.7253 C.ar    1  UNL1        0.2037
     31 N          67.4349   94.1183   10.0970 N.ar    1  UNL1       -0.1829
     32 C          68.0571   94.0039    8.7369 C.ar    1  UNL1        0.3164
     33 O          68.4474   92.5712    8.5247 O.2     1  UNL1       -0.3274
     34 N          68.0663   91.8000    9.7536 N.ar    1  UNL1       -0.0554
@<TRIPOS>BOND
     1     9    10    1
     2    10    11   ar
     3    11    12   ar
     4    12     1    1
     5     1     2    2
     6     1     3   am
     7     3     4    1
     8     4     5    1
     9     5     6    1
    10     6     7    1
    11     7     8    1
    12     8    22    1
    13    22    23    1
    14    23    24   ar
    15    24    25   ar
    16    25    30    1
    17    30    31   ar
    18    31    32   ar
    19    32    33   ar
    20    33    34   ar
    21    25    26   ar
    22    26    27   ar
    23    27    28   ar
    24    28    29    1
    25    12    13   ar
    26    13    17    1
    27    17    18   ar
    28    18    19   ar
    29    19    20   ar
    30    20    21   ar
    31    13    14   ar
    32    14    15   ar
    33    15    16    1
    34    15    10   ar
    35     8     3    1
    36    28    23   ar
    37    21    17   ar
    38    34    30   ar
@<TRIPOS>MOLECULE
*****
 34 38 0 0 0
SMALL
GASTEIGER

@<TRIPOS>ATOM
      1 C          62.8445   88.8452   12.0159 C.2     1  UNL1        0.2506
      2 O          62.9229   87.6134   12.8683 O.2     1  UNL1       -0.2699
      3 N          61.8897   88.8979   10.8602 N.am    1  UNL1       -0.2723
      4 C          61.8114   90.1297   10.0077 C.3     1  UNL1        0.1257
      5 C          60.8566   90.1825    8.8520 C.3     1  UNL1        0.1637
      6 O          59.9802   89.0035    8.5488 O.3     1  UNL1       -0.3502
      7 C          60.0586   87.7718    9.4012 C.3     1  UNL1        0.1622
      8 C          61.0134   87.7190   10.5569 C.3     1  UNL1        0.1097
      9 C          65.3376   93.1229   10.4391 C.3     1  UNL1        0.0307
     10 C          64.9674   92.1630   11.5308 C.ar    1  UNL1       -0.0255
     11 C          64.0911   90.9840   11.2275 C.ar    1  UNL1        0.0015
     12 C          63.7209   90.0242   12.3191 C.ar    1  UNL1        0.0726
     13 C          64.2270   90.2434   13.7140 C.ar    1  UNL1        0.1069
     14 C          65.1034   91.4223   14.0173 C.ar    1  UNL1        0.0165
     15 C          65.4736   92.3821   12.9257 C.ar    1  UNL1       -0.0242
     16 C          66.3500   93.5612   13.2290 C.3     1  UNL1        0.0307
     17 N          63.8568   89.2835   14.8057 N.ar    1  UNL1       -0.1477
     18 N          64.3500   87.8737   14.9449 N.ar    1  UNL1       -0.1447
     19 C          63.7265   87.2838   16.1750 C.ar    1  UNL1        0.1446
     20 C          62.8479   88.3290   16.7960 C.ar    1  UNL1        0.1446
     21 N          62.9285   89.5648   15.9498 N.ar    1  UNL1       -0.1447
     22 C          61.0917   86.4872   11.4094 C.3     1  UNL1        0.0510
     23 C          62.0017   85.3609   11.0179 C.ar    1  UNL1        0.0071
     24 C          62.1607   84.1757   11.9235 C.ar    1  UNL1        0.0012
     25 C          63.0707   83.0494   11.5321 C.ar    1  UNL1        0.0389
     26 C          63.8218   83.1082   10.2349 C.ar    1  UNL1        0.0054
     27 C          63.6628   84.2934    9.3293 C.ar    1  UNL1        0.0294
     28 C          62.7528   85.4197    9.7208 C.ar    1  UNL1        0.1362
     29 F          62.5938   86.6049    8.8152 F       1  UNL1       -0.2045
     30 C          63.2297   81.8642   12.4377 C.ar    1  UNL1        0.2037
     31 N          62.4649   80.5769   12.3476 N.ar    1  UNL1       -0.1829
     32 C          62.9439   79.6754   13.4467 C.ar    1  UNL1        0.3164
     33 O          64.0047   80.4055   14.2159 O.2     1  UNL1       -0.3274
     34 N          64.1813   81.7583   13.5923 N.ar    1  UNL1       -0.0554
@<TRIPOS>BOND
     1     9    10    1
     2    10    11   ar
     3    11    12   ar
     4    12     1    1
     5     1     2    2
     6     1     3   am
     7     3     4    1
     8     4     5    1
     9     5     6    1
    10     6     7    1
    11     7     8    1
    12     8    22    1
    13    22    23    1
    14    23    24   ar
    15    24    25   ar
    16    25    30    1
    17    30    31   ar
    18    31    32   ar
    19    32    33   ar
    20    33    34   ar
    21    25    26   ar
    22    26    27   ar
    23    27    28   ar
    24    28    29    1
    25    12    13   ar
    26    13    17    1
    27    17    18   ar
    28    18    19   ar
    29    19    20   ar
    30    20    21   ar
    31    13    14   ar
    32    14    15   ar
    33    15    16    1
    34    15    10   ar
    35     8     3    1
    36    28    23   ar
    37    21    17   ar
    38    34    30   ar
@<TRIPOS>MOLECULE
*****
 34 38 0 0 0
SMALL
GASTEIGER

@<TRIPOS>ATOM
      1 C          63.4624   88.4063   12.9923 C.2     1  UNL1        0.2506
      2 O          63.6487   89.2801   11.7874 O.2     1  UNL1       -0.2699
      3 N          63.4265   89.0157   14.3624 N.am    1  UNL1       -0.2723
      4 C          63.2402   88.1417   15.5673 C.3     1  UNL1        0.1257
      5 C          63.2043   88.7511   16.9375 C.3     1  UNL1        0.1637
      6 O          63.3547   90.2344   17.1028 O.3     1  UNL1       -0.3502
      7 C          63.5411   91.1083   15.8980 C.3     1  UNL1        0.1622
      8 C          63.5769   90.4989   14.5278 C.3     1  UNL1        0.1097
      9 C          64.7556   83.5693   14.3821 C.3     1  UNL1        0.0307
     10 C          63.9585   84.5046   13.5218 C.ar    1  UNL1       -0.0255
     11 C          64.1090   85.9878   13.6872 C.ar    1  UNL1        0.0015
     12 C          63.3119   86.9230   12.8269 C.ar    1  UNL1        0.0726
     13 C          62.3643   86.3750   11.8014 C.ar    1  UNL1        0.1069
     14 C          62.2139   84.8918   11.6360 C.ar    1  UNL1        0.0165
     15 C          63.0109   83.9566   12.4962 C.ar    1  UNL1       -0.0242
     16 C          62.8605   82.4733   12.3309 C.3     1  UNL1        0.0307
     17 N          61.5672   87.3103   10.9411 N.ar    1  UNL1       -0.1477
     18 N          60.3791   88.1144   11.3790 N.ar    1  UNL1       -0.1447
     19 C          59.8958   88.9067   10.2005 C.ar    1  UNL1        0.1446
     20 C          60.7854   88.5923    9.0344 C.ar    1  UNL1        0.1446
     21 N          61.8183   87.6056    9.4921 N.ar    1  UNL1       -0.1447
     22 C          63.7633   91.3728   13.3229 C.3     1  UNL1        0.0510
     23 C          65.1323   91.8653   12.9582 C.ar    1  UNL1        0.0071
     24 C          65.3026   92.8433   11.8337 C.ar    1  UNL1        0.0012
     25 C          66.6717   93.3358   11.4689 C.ar    1  UNL1        0.0389
     26 C          67.8705   92.8503   12.2286 C.ar    1  UNL1        0.0054
     27 C          67.7002   91.8723   13.3531 C.ar    1  UNL1        0.0294
     28 C          66.3311   91.3798   13.7179 C.ar    1  UNL1        0.1362
     29 F          66.1608   90.4018   14.8424 F       1  UNL1       -0.2045
     30 C          66.8420   94.3138   10.3444 C.ar    1  UNL1        0.2037
     31 N          65.8855   95.4091    9.9760 N.ar    1  UNL1       -0.1829
     32 C          66.4511   96.1405    8.7948 C.ar    1  UNL1        0.3164
     33 O          67.7570   95.4972    8.4331 O.2     1  UNL1       -0.3274
     34 N          67.9986   94.3683    9.3908 N.ar    1  UNL1       -0.0554
@<TRIPOS>BOND
     1     9    10    1
     2    10    11   ar
     3    11    12   ar
     4    12     1    1
     5     1     2    2
     6     1     3   am
     7     3     4    1
     8     4     5    1
     9     5     6    1
    10     6     7    1
    11     7     8    1
    12     8    22    1
    13    22    23    1
    14    23    24   ar
    15    24    25   ar
    16    25    30    1
    17    30    31   ar
    18    31    32   ar
    19    32    33   ar
    20    33    34   ar
    21    25    26   ar
    22    26    27   ar
    23    27    28   ar
    24    28    29    1
    25    12    13   ar
    26    13    17    1
    27    17    18   ar
    28    18    19   ar
    29    19    20   ar
    30    20    21   ar
    31    13    14   ar
    32    14    15   ar
    33    15    16    1
    34    15    10   ar
    35     8     3    1
    36    28    23   ar
    37    21    17   ar
    38    34    30   ar
@<TRIPOS>MOLECULE
*****
 34 38 0 0 0
SMALL
GASTEIGER

@<TRIPOS>ATOM
      1 C          63.2466   87.5229   12.8323 C.2     1  UNL1        0.2506
      2 O          63.2001   88.2718   11.5335 O.2     1  UNL1       -0.2699
      3 N          63.2734   88.2738   14.1305 N.am    1  UNL1       -0.2723
      4 C          63.3199   87.5248   15.4293 C.3     1  UNL1        0.1257
      5 C          63.3468   88.2758   16.7276 C.3     1  UNL1        0.1637
      6 O          63.3272   89.7757   16.7269 O.3     1  UNL1       -0.3502
      7 C          63.2807   90.5246   15.4281 C.3     1  UNL1        0.1622
      8 C          63.2538   89.7737   14.1299 C.3     1  UNL1        0.1097
      9 C          64.7876   83.0435   14.9678 C.3     1  UNL1        0.0307
     10 C          64.0367   83.7833   13.9006 C.ar    1  UNL1       -0.0255
     11 C          64.0171   85.2832   13.9000 C.ar    1  UNL1        0.0015
     12 C          63.2662   86.0230   12.8329 C.ar    1  UNL1        0.0726
     13 C          62.5349   85.2629   11.7663 C.ar    1  UNL1        0.1069
     14 C          62.5545   83.7631   11.7669 C.ar    1  UNL1        0.0165
     15 C          63.3054   83.0233   12.8341 C.ar    1  UNL1       -0.0242
     16 C          63.3250   81.5234   12.8347 C.3     1  UNL1        0.0307
     17 N          61.7840   86.0028   10.6992 N.ar    1  UNL1       -0.1477
     18 N          60.5827   86.8759   10.9105 N.ar    1  UNL1       -0.1447
     19 C          60.1588   87.4122    9.5753 C.ar    1  UNL1        0.1446
     20 C          61.0981   86.8705    8.5388 C.ar    1  UNL1        0.1446
     21 N          62.1025   85.9994    9.2334 N.ar    1  UNL1       -0.1447
     22 C          63.2073   90.5226   12.8310 C.3     1  UNL1        0.0510
     23 C          64.3537   91.4038   12.4320 C.ar    1  UNL1        0.0071
     24 C          65.4332   91.7249   13.4227 C.ar    1  UNL1        0.0012
     25 C          66.5796   92.6060   13.0236 C.ar    1  UNL1        0.0389
     26 C          66.6465   93.1661   11.6337 C.ar    1  UNL1        0.0054
     27 C          65.5671   92.8450   10.6429 C.ar    1  UNL1        0.0294
     28 C          64.4207   91.9638   11.0421 C.ar    1  UNL1        0.1362
     29 F          63.3412   91.6427   10.0513 F       1  UNL1       -0.2045
     30 C          67.6590   92.9271   14.0144 C.ar    1  UNL1        0.2037
     31 N          67.5253   93.8358   15.2005 N.ar    1  UNL1       -0.1829
     32 C          68.8454   93.8662   15.9122 C.ar    1  UNL1        0.3164
     33 O          69.7949   92.9764   15.1661 O.2     1  UNL1       -0.3274
     34 N          69.0617   92.3960   13.9932 N.ar    1  UNL1       -0.0554
@<TRIPOS>BOND
     1     9    10    1
     2    10    11   ar
     3    11    12   ar
     4    12     1    1
     5     1     2    2
     6     1     3   am
     7     3     4    1
     8     4     5    1
     9     5     6    1
    10     6     7    1
    11     7     8    1
    12     8    22    1
    13    22    23    1
    14    23    24   ar
    15    24    25   ar
    16    25    30    1
    17    30    31   ar
    18    31    32   ar
    19    32    33   ar
    20    33    34   ar
    21    25    26   ar
    22    26    27   ar
    23    27    28   ar
    24    28    29    1
    25    12    13   ar
    26    13    17    1
    27    17    18   ar
    28    18    19   ar
    29    19    20   ar
    30    20    21   ar
    31    13    14   ar
    32    14    15   ar
    33    15    16    1
    34    15    10   ar
    35     8     3    1
    36    28    23   ar
    37    21    17   ar
    38    34    30   ar
@<TRIPOS>MOLECULE
*****
 34 38 0 0 0
SMALL
GASTEIGER

@<TRIPOS>ATOM
      1 C          63.0169   89.5538   10.8686 C.2     1  UNL1        0.2506
      2 O          63.5644   88.6823    9.7775 O.2     1  UNL1       -0.2699
      3 N          61.6378   89.3071   11.4048 N.am    1  UNL1       -0.2723
      4 C          61.0903   90.1787   12.4960 C.3     1  UNL1        0.1257
      5 C          59.7113   89.9320   13.0321 C.3     1  UNL1        0.1637
      6 O          58.8798   88.8137   12.4770 O.3     1  UNL1       -0.3502
      7 C          59.4273   87.9422   11.3858 C.3     1  UNL1        0.1622
      8 C          60.8063   88.1889   10.8497 C.3     1  UNL1        0.1097
      9 C          65.3322   94.1668   10.2679 C.3     1  UNL1        0.0307
     10 C          65.0060   92.9785   11.1234 C.ar    1  UNL1       -0.0255
     11 C          64.1745   91.8603   10.5683 C.ar    1  UNL1        0.0015
     12 C          63.8484   90.6721   11.4237 C.ar    1  UNL1        0.0726
     13 C          64.3538   90.6022   12.8343 C.ar    1  UNL1        0.1069
     14 C          65.1852   91.7204   13.3894 C.ar    1  UNL1        0.0165
     15 C          65.5114   92.9086   12.5339 C.ar    1  UNL1       -0.0242
     16 C          66.3429   94.0269   13.0890 C.3     1  UNL1        0.0307
     17 N          64.0276   89.4140   13.6898 N.ar    1  UNL1       -0.1477
     18 N          63.5646   89.4548   15.1160 N.ar    1  UNL1       -0.1447
     19 C          63.3580   88.0424   15.5769 C.ar    1  UNL1        0.1446
     20 C          63.6933   87.1287   14.4356 C.ar    1  UNL1        0.1446
     21 N          64.1071   87.9763   13.2693 N.ar    1  UNL1       -0.1447
     22 C          61.3538   87.3173    9.7585 C.3     1  UNL1        0.0510
     23 C          62.0999   86.0627   10.1040 C.ar    1  UNL1        0.0071
     24 C          62.1827   85.6082   11.5310 C.ar    1  UNL1        0.0012
     25 C          62.9288   84.3536   11.8765 C.ar    1  UNL1        0.0389
     26 C          63.5922   83.5535   10.7948 C.ar    1  UNL1        0.0054
     27 C          63.5094   84.0081    9.3677 C.ar    1  UNL1        0.0294
     28 C          62.7632   85.2627    9.0223 C.ar    1  UNL1        0.1362
     29 F          62.6804   85.7173    7.5953 F       1  UNL1       -0.2045
     30 C          63.0116   83.8991   13.3035 C.ar    1  UNL1        0.2037
     31 N          62.0848   84.3015   14.4123 N.ar    1  UNL1       -0.1829
     32 C          62.5362   83.6134   15.6664 C.ar    1  UNL1        0.3164
     33 O          63.7419   82.7857   15.3328 O.2     1  UNL1       -0.3274
     34 N          64.0357   82.9623   13.8725 N.ar    1  UNL1       -0.0554
@<TRIPOS>BOND
     1     9    10    1
     2    10    11   ar
     3    11    12   ar
     4    12     1    1
     5     1     2    2
     6     1     3   am
     7     3     4    1
     8     4     5    1
     9     5     6    1
    10     6     7    1
    11     7     8    1
    12     8    22    1
    13    22    23    1
    14    23    24   ar
    15    24    25   ar
    16    25    30    1
    17    30    31   ar
    18    31    32   ar
    19    32    33   ar
    20    33    34   ar
    21    25    26   ar
    22    26    27   ar
    23    27    28   ar
    24    28    29    1
    25    12    13   ar
    26    13    17    1
    27    17    18   ar
    28    18    19   ar
    29    19    20   ar
    30    20    21   ar
    31    13    14   ar
    32    14    15   ar
    33    15    16    1
    34    15    10   ar
    35     8     3    1
    36    28    23   ar
    37    21    17   ar
    38    34    30   ar
@<TRIPOS>MOLECULE
*****
 34 38 0 0 0
SMALL
GASTEIGER

@<TRIPOS>ATOM
      1 C          63.0946   88.7890   12.5100 C.2     1  UNL1        0.2506
      2 O          63.3862   87.3970   12.9865 O.2     1  UNL1       -0.2699
      3 N          61.9640   89.0334   11.5550 N.am    1  UNL1       -0.2723
      4 C          61.6723   90.4256   11.0785 C.3     1  UNL1        0.1257
      5 C          60.5417   90.6700   10.1236 C.3     1  UNL1        0.1637
      6 O          59.7027   89.5222    9.6451 O.3     1  UNL1       -0.3502
      7 C          59.9943   88.1302   10.1216 C.3     1  UNL1        0.1622
      8 C          61.1250   87.8858   11.0766 C.3     1  UNL1        0.1097
      9 C          65.6552   93.2045   11.5365 C.3     1  UNL1        0.0307
     10 C          65.2139   92.1444   12.5017 C.ar    1  UNL1       -0.0255
     11 C          64.3749   90.9967   12.0233 C.ar    1  UNL1        0.0015
     12 C          63.9336   89.9368   12.9884 C.ar    1  UNL1        0.0726
     13 C          64.3313   90.0244   14.4321 C.ar    1  UNL1        0.1069
     14 C          65.1702   91.1721   14.9106 C.ar    1  UNL1        0.0165
     15 C          65.6115   92.2321   13.9454 C.ar    1  UNL1       -0.0242
     16 C          66.4505   93.3798   14.4239 C.3     1  UNL1        0.0307
     17 N          63.8899   88.9643   15.3973 N.ar    1  UNL1       -0.1477
     18 N          63.0214   89.1752   16.6020 N.ar    1  UNL1       -0.1447
     19 C          62.8343   87.8486   17.2765 C.ar    1  UNL1        0.1446
     20 C          63.5872   86.8178   16.4887 C.ar    1  UNL1        0.1446
     21 N          64.2396   87.5074   15.3273 N.ar    1  UNL1       -0.1447
     22 C          61.4166   86.4936   11.5531 C.3     1  UNL1        0.0510
     23 C          62.1283   85.5268   10.6538 C.ar    1  UNL1        0.0071
     24 C          61.8064   85.4884    9.1893 C.ar    1  UNL1        0.0012
     25 C          62.5181   84.5216    8.2901 C.ar    1  UNL1        0.0389
     26 C          63.5518   83.5931    8.8554 C.ar    1  UNL1        0.0054
     27 C          63.8737   83.6315   10.3199 C.ar    1  UNL1        0.0294
     28 C          63.1619   84.5984   11.2192 C.ar    1  UNL1        0.1362
     29 F          63.4838   84.6368   12.6837 F       1  UNL1       -0.2045
     30 C          62.1962   84.4832    6.8255 C.ar    1  UNL1        0.2037
     31 N          63.1620   84.7268    5.7038 N.ar    1  UNL1       -0.1829
     32 C          62.4147   84.5886    4.4106 C.ar    1  UNL1        0.3164
     33 O          60.9871   84.2596    4.7329 O.2     1  UNL1       -0.3274
     34 N          60.8522   84.1945    6.2255 N.ar    1  UNL1       -0.0554
@<TRIPOS>BOND
     1     9    10    1
     2    10    11   ar
     3    11    12   ar
     4    12     1    1
     5     1     2    2
     6     1     3   am
     7     3     4    1
     8     4     5    1
     9     5     6    1
    10     6     7    1
    11     7     8    1
    12     8    22    1
    13    22    23    1
    14    23    24   ar
    15    24    25   ar
    16    25    30    1
    17    30    31   ar
    18    31    32   ar
    19    32    33   ar
    20    33    34   ar
    21    25    26   ar
    22    26    27   ar
    23    27    28   ar
    24    28    29    1
    25    12    13   ar
    26    13    17    1
    27    17    18   ar
    28    18    19   ar
    29    19    20   ar
    30    20    21   ar
    31    13    14   ar
    32    14    15   ar
    33    15    16    1
    34    15    10   ar
    35     8     3    1
    36    28    23   ar
    37    21    17   ar
    38    34    30   ar
@<TRIPOS>MOLECULE
*****
 34 38 0 0 0
SMALL
GASTEIGER

@<TRIPOS>ATOM
      1 C          62.9172   86.5601   11.7252 C.2     1  UNL1        0.2506
      2 O          63.7494   87.5421   12.4953 O.2     1  UNL1       -0.2699
      3 N          62.9822   85.0988   12.0576 N.am    1  UNL1       -0.2723
      4 C          62.1499   84.1168   11.2874 C.3     1  UNL1        0.1257
      5 C          62.2150   82.6555   11.6198 C.3     1  UNL1        0.1637
      6 O          63.1122   82.1763   12.7222 O.3     1  UNL1       -0.3502
      7 C          63.9444   83.1583   13.4923 C.3     1  UNL1        0.1622
      8 C          63.8794   84.6196   13.1600 C.3     1  UNL1        0.1097
      9 C          59.8705   85.5444    7.6404 C.3     1  UNL1        0.0307
     10 C          60.4966   86.5315    8.5804 C.ar    1  UNL1       -0.0255
     11 C          61.3938   86.0522    9.6828 C.ar    1  UNL1        0.0015
     12 C          62.0199   87.0393   10.6228 C.ar    1  UNL1        0.0726
     13 C          61.7488   88.5057   10.4604 C.ar    1  UNL1        0.1069
     14 C          60.8516   88.9849    9.3580 C.ar    1  UNL1        0.0165
     15 C          60.2255   87.9978    8.4180 C.ar    1  UNL1       -0.0242
     16 C          59.3283   88.4771    7.3155 C.3     1  UNL1        0.0307
     17 N          62.3750   89.4928   11.4004 N.ar    1  UNL1       -0.1477
     18 N          61.9640   89.7398   12.8217 N.ar    1  UNL1       -0.1447
     19 C          62.8570   90.8058   13.3840 C.ar    1  UNL1        0.1446
     20 C          63.8200   91.2176   12.3101 C.ar    1  UNL1        0.1446
     21 N          63.5221   90.4061   11.0842 N.ar    1  UNL1       -0.1447
     22 C          64.7116   85.6016   13.9301 C.3     1  UNL1        0.0510
     23 C          64.0961   86.3952   15.0442 C.ar    1  UNL1        0.0071
     24 C          64.3043   87.8792   15.1119 C.ar    1  UNL1        0.0012
     25 C          63.6887   88.6728   16.2260 C.ar    1  UNL1        0.0389
     26 C          62.8648   87.9825   17.2724 C.ar    1  UNL1        0.0054
     27 C          62.6566   86.4986   17.2046 C.ar    1  UNL1        0.0294
     28 C          63.2723   85.7049   16.0905 C.ar    1  UNL1        0.1362
     29 F          63.0640   84.2210   16.0227 F       1  UNL1       -0.2045
     30 C          63.8969   90.1567   16.2937 C.ar    1  UNL1        0.2037
     31 N          65.0614   90.9107   15.7228 N.ar    1  UNL1       -0.1829
     32 C          64.8613   92.3672   16.0206 C.ar    1  UNL1        0.3164
     33 O          63.5734   92.5134   16.7755 O.2     1  UNL1       -0.3274
     34 N          62.9774   91.1473   16.9443 N.ar    1  UNL1       -0.0554
@<TRIPOS>BOND
     1     9    10    1
     2    10    11   ar
     3    11    12   ar
     4    12     1    1
     5     1     2    2
     6     1     3   am
     7     3     4    1
     8     4     5    1
     9     5     6    1
    10     6     7    1
    11     7     8    1
    12     8    22    1
    13    22    23    1
    14    23    24   ar
    15    24    25   ar
    16    25    30    1
    17    30    31   ar
    18    31    32   ar
    19    32    33   ar
    20    33    34   ar
    21    25    26   ar
    22    26    27   ar
    23    27    28   ar
    24    28    29    1
    25    12    13   ar
    26    13    17    1
    27    17    18   ar
    28    18    19   ar
    29    19    20   ar
    30    20    21   ar
    31    13    14   ar
    32    14    15   ar
    33    15    16    1
    34    15    10   ar
    35     8     3    1
    36    28    23   ar
    37    21    17   ar
    38    34    30   ar
