@<TRIPOS>MOLECULE
*****
 52 58 0 0 0
SMALL
GASTEIGER

@<TRIPOS>ATOM
      1 N          60.0612   92.6316    2.9152 N.ar    1  UNL1       -0.1285
      2 N          59.0518   93.2213    1.9754 N.ar    1  UNL1       -0.0406
      3 N          59.7861   94.0673    0.9778 N.ar    1  UNL1       -0.1074
      4 C          61.2493   94.0004    1.3011 C.ar    1  UNL1        0.2075
      5 N          61.4194   93.1131    2.4984 N.ar    1  UNL1       -0.1253
      6 C          59.1713   89.8979    6.3771 C.ar    1  UNL1       -0.0207
      7 C          58.0605   90.6628    5.7207 C.ar    1  UNL1       -0.0026
      8 C          58.3572   91.5741    4.5667 C.ar    1  UNL1        0.0206
      9 C          59.7646   91.7204    4.0691 C.ar    1  UNL1        0.1045
     10 C          60.8755   90.9554    4.7256 C.ar    1  UNL1        0.0206
     11 C          60.5788   90.0442    5.8795 C.ar    1  UNL1       -0.0026
     12 C          58.8747   88.9867    7.5310 C.3     1  UNL1        0.0437
     13 C          59.6666   87.7259    7.7140 C.3     1  UNL1        0.0771
     14 C          63.5420   85.7026   13.0184 C.ar    1  UNL1        0.1721
     15 C          63.2031   87.0750   12.5171 C.ar    1  UNL1        0.0356
     16 C          62.3189   87.2378   11.3163 C.ar    1  UNL1       -0.0202
     17 C          61.7737   86.0280   10.6169 C.ar    1  UNL1       -0.0068
     18 C          62.1127   84.6555   11.1183 C.ar    1  UNL1        0.0368
     19 C          62.9968   84.4928   12.3190 C.ar    1  UNL1        0.1721
     20 C          60.8896   86.1907    9.4161 C.3     1  UNL1        0.0990
     21 N          60.5507   87.5632    8.9148 N.3     1  UNL1       -0.2683
     22 C          61.0959   88.7730    9.6142 C.3     1  UNL1        0.0771
     23 C          61.9800   88.6103   10.8150 C.3     1  UNL1        0.0435
     24 C          63.9282   85.9386   15.5768 C.3     1  UNL1        0.2526
     25 O          64.4261   85.5398   14.2193 O.3     1  UNL1       -0.4684
     26 O          63.3358   83.1202   12.8204 O.3     1  UNL1       -0.4684
     27 C          63.1408   82.7815   14.2686 C.3     1  UNL1        0.2526
     28 C          62.3493   94.6983    0.5575 C.ar    1  UNL1        0.0560
     29 C          63.4204   95.4274    1.3133 C.ar    1  UNL1        0.0444
     30 C          64.5204   96.1253    0.5697 C.ar    1  UNL1        0.1726
     31 C          64.5494   96.0941   -0.9297 C.ar    1  UNL1        0.1736
     32 C          63.4784   95.3650   -1.6855 C.ar    1  UNL1        0.0548
     33 C          62.3783   94.6671   -0.9419 C.ar    1  UNL1        0.0568
     34 N          61.3073   93.9379   -1.6978 N.am    1  UNL1       -0.2802
     35 C          60.4713   94.6686   -2.7064 C.2     1  UNL1        0.2495
     36 O          60.7064   96.1283   -2.9592 O.2     1  UNL1       -0.2698
     37 H          61.1530   92.9799   -1.5318 H       1  UNL1        0.1552
     38 C          59.4002   93.9395   -3.4622 C.ar    1  UNL1        0.0538
     39 C          59.1371   94.2741   -4.9006 C.ar    1  UNL1        0.0060
     40 C          58.0661   93.5450   -5.6563 C.ar    1  UNL1        0.0177
     41 C          57.2582   92.4814   -4.9738 C.ar    1  UNL1        0.0655
     42 C          57.5212   92.1468   -3.5354 C.ar    1  UNL1        0.0177
     43 C          58.5923   92.8759   -2.7797 C.ar    1  UNL1        0.0060
     44 N          56.1870   91.7522   -5.7296 N.ar    1  UNL1       -0.2864
     45 C          55.3312   90.6420   -5.1958 C.ar    1  UNL1        0.1022
     46 C          54.3991   90.2090   -6.2882 C.ar    1  UNL1        0.1196
     47 N          54.6787   91.0516   -7.4972 N.ar    1  UNL1       -0.2220
     48 C          55.7837   92.0054   -7.1521 C.ar    1  UNL1        0.1828
     49 O          65.5914   96.8544    1.3256 O.3     1  UNL1       -0.4684
     50 C          65.5911   96.8429    2.8255 C.3     1  UNL1        0.2526
     51 O          65.6494   96.7920   -1.6732 O.3     1  UNL1       -0.4683
     52 C          65.7543   96.6514   -3.1629 C.3     1  UNL1        0.2526
@<TRIPOS>BOND
     1    24    25    1
     2    25    14    1
     3    14    15   ar
     4    15    16   ar
     5    16    17   ar
     6    17    18   ar
     7    18    19   ar
     8    19    26    1
     9    26    27    1
    10    17    20    1
    11    20    21    1
    12    21    13    1
    13    13    12    1
    14    12     6    1
    15     6     7   ar
    16     7     8   ar
    17     8     9   ar
    18     9     1    1
    19     1     2   ar
    20     2     3   ar
    21     3     4   ar
    22     4    28    1
    23    28    29   ar
    24    29    30   ar
    25    30    49    1
    26    49    50    1
    27    30    31   ar
    28    31    51    1
    29    51    52    1
    30    31    32   ar
    31    32    33   ar
    32    33    34    1
    33    34    35   am
    34    35    36    2
    35    35    38    1
    36    38    39   ar
    37    39    40   ar
    38    40    41   ar
    39    41    44    1
    40    44    45   ar
    41    45    46   ar
    42    46    47   ar
    43    47    48   ar
    44    41    42   ar
    45    42    43   ar
    46     4     5   ar
    47     9    10   ar
    48    10    11   ar
    49    21    22    1
    50    22    23    1
    51    19    14   ar
    52    11     6   ar
    53    23    16    1
    54     5     1   ar
    55    33    28   ar
    56    43    38   ar
    57    48    44   ar
    58    34    37    1
@<TRIPOS>MOLECULE
*****
 52 58 0 0 0
SMALL
GASTEIGER

@<TRIPOS>ATOM
      1 N          61.4414   86.9753    9.3534 N.ar    1  UNL1       -0.1285
      2 N          62.2825   85.7872    8.9913 N.ar    1  UNL1       -0.0406
      3 N          62.8855   85.2443   10.2529 N.ar    1  UNL1       -0.1074
      4 C          62.4170   86.0969   11.3948 C.ar    1  UNL1        0.2075
      5 N          61.5246   87.1666   10.8388 N.ar    1  UNL1       -0.1253
      6 C          59.0830   89.5188    6.4867 C.ar    1  UNL1       -0.0207
      7 C          59.8392   90.1610    7.6117 C.ar    1  UNL1       -0.0026
      8 C          60.6254   89.3131    8.5673 C.ar    1  UNL1        0.0206
      9 C          60.6553   87.8231    8.3978 C.ar    1  UNL1        0.1045
     10 C          59.8991   87.1808    7.2728 C.ar    1  UNL1        0.0206
     11 C          59.1129   88.0286    6.3173 C.ar    1  UNL1       -0.0026
     12 C          58.2968   90.3666    5.5312 C.3     1  UNL1        0.0437
     13 C          58.7374   91.7698    5.2363 C.3     1  UNL1        0.0771
     14 C          63.2186   93.7276    0.4056 C.ar    1  UNL1        0.1721
     15 C          63.3560   92.7483    1.5334 C.ar    1  UNL1        0.0356
     16 C          62.2013   92.5036    2.4592 C.ar    1  UNL1       -0.0202
     17 C          60.9093   93.2383    2.2570 C.ar    1  UNL1       -0.0068
     18 C          60.7719   94.2176    1.1291 C.ar    1  UNL1        0.0368
     19 C          61.9266   94.4622    0.2034 C.ar    1  UNL1        0.1721
     20 C          59.7547   92.9937    3.1827 C.3     1  UNL1        0.0990
     21 N          59.8921   92.0144    4.3105 N.3     1  UNL1       -0.2683
     22 C          61.1841   91.2797    4.5127 C.3     1  UNL1        0.0771
     23 C          62.3388   91.5243    3.5870 C.3     1  UNL1        0.0435
     24 C          65.1248   95.2688   -0.4555 C.3     1  UNL1        0.2526
     25 O          64.3733   93.9722   -0.5202 O.3     1  UNL1       -0.4684
     26 O          61.7892   95.4416   -0.9245 O.3     1  UNL1       -0.4684
     27 C          61.1637   95.0123   -2.2185 C.3     1  UNL1        0.2526
     28 C          62.7777   85.9120   12.8390 C.ar    1  UNL1        0.0560
     29 C          62.3743   84.6592   13.5584 C.ar    1  UNL1        0.0444
     30 C          62.7350   84.4744   15.0026 C.ar    1  UNL1        0.1726
     31 C          63.4991   85.5425   15.7274 C.ar    1  UNL1        0.1736
     32 C          63.9025   86.7953   15.0080 C.ar    1  UNL1        0.0548
     33 C          63.5418   86.9801   13.5639 C.ar    1  UNL1        0.0568
     34 N          63.9453   88.2330   12.8444 N.am    1  UNL1       -0.2802
     35 C          64.1868   89.4964   13.6163 C.2     1  UNL1        0.2495
     36 O          64.0250   89.5068   15.1074 O.2     1  UNL1       -0.2698
     37 H          64.0515   88.2262   11.8657 H       1  UNL1        0.1552
     38 C          64.5903   90.7493   12.8969 C.ar    1  UNL1        0.0538
     39 C          64.0021   91.0654   11.5537 C.ar    1  UNL1        0.0060
     40 C          64.4056   92.3183   10.8345 C.ar    1  UNL1        0.0177
     41 C          65.3972   93.2550   11.4583 C.ar    1  UNL1        0.0655
     42 C          65.9853   92.9389   12.8015 C.ar    1  UNL1        0.0177
     43 C          65.5819   91.6860   13.5207 C.ar    1  UNL1        0.0060
     44 N          65.8006   94.5080   10.7390 N.ar    1  UNL1       -0.2864
     45 C          65.4410   95.9085   11.1380 C.ar    1  UNL1        0.1022
     46 C          66.0527   96.8464   10.1400 C.ar    1  UNL1        0.1196
     47 N          66.7904   96.0256    9.1241 N.ar    1  UNL1       -0.2220
     48 C          66.6346   94.5804    9.4943 C.ar    1  UNL1        0.1828
     49 O          62.3315   83.2215   15.7219 O.3     1  UNL1       -0.4684
     50 C          62.0170   81.9782   14.9440 C.3     1  UNL1        0.2526
     51 O          63.8597   85.3576   17.1716 O.3     1  UNL1       -0.4683
     52 C          63.1581   86.1583   18.2283 C.3     1  UNL1        0.2526
@<TRIPOS>BOND
     1    24    25    1
     2    25    14    1
     3    14    15   ar
     4    15    16   ar
     5    16    17   ar
     6    17    18   ar
     7    18    19   ar
     8    19    26    1
     9    26    27    1
    10    17    20    1
    11    20    21    1
    12    21    13    1
    13    13    12    1
    14    12     6    1
    15     6     7   ar
    16     7     8   ar
    17     8     9   ar
    18     9     1    1
    19     1     2   ar
    20     2     3   ar
    21     3     4   ar
    22     4    28    1
    23    28    29   ar
    24    29    30   ar
    25    30    49    1
    26    49    50    1
    27    30    31   ar
    28    31    51    1
    29    51    52    1
    30    31    32   ar
    31    32    33   ar
    32    33    34    1
    33    34    35   am
    34    35    36    2
    35    35    38    1
    36    38    39   ar
    37    39    40   ar
    38    40    41   ar
    39    41    44    1
    40    44    45   ar
    41    45    46   ar
    42    46    47   ar
    43    47    48   ar
    44    41    42   ar
    45    42    43   ar
    46     4     5   ar
    47     9    10   ar
    48    10    11   ar
    49    21    22    1
    50    22    23    1
    51    19    14   ar
    52    11     6   ar
    53    23    16    1
    54     5     1   ar
    55    33    28   ar
    56    43    38   ar
    57    48    44   ar
    58    34    37    1
@<TRIPOS>MOLECULE
*****
 52 58 0 0 0
SMALL
GASTEIGER

@<TRIPOS>ATOM
      1 N          60.1313   93.5275    1.1182 N.ar    1  UNL1       -0.1285
      2 N          59.4787   94.8333    0.7736 N.ar    1  UNL1       -0.0406
      3 N          59.8463   95.1767   -0.6395 N.ar    1  UNL1       -0.1074
      4 C          60.7262   94.0830   -1.1684 C.ar    1  UNL1        0.2075
      5 N          60.9023   93.0637   -0.0820 N.ar    1  UNL1       -0.1253
      6 C          59.8291   91.3784    5.0603 C.ar    1  UNL1       -0.0207
      7 C          58.5955   91.9337    4.4123 C.ar    1  UNL1       -0.0026
      8 C          58.6963   92.6501    3.0982 C.ar    1  UNL1        0.0206
      9 C          60.0306   92.8111    2.4322 C.ar    1  UNL1        0.1045
     10 C          61.2642   92.2558    3.0802 C.ar    1  UNL1        0.0206
     11 C          61.1635   91.5395    4.3942 C.ar    1  UNL1       -0.0026
     12 C          59.7284   90.6621    6.3743 C.3     1  UNL1        0.0437
     13 C          59.3932   89.2004    6.4079 C.3     1  UNL1        0.0771
     14 C          62.4793   86.3049   11.8247 C.ar    1  UNL1        0.1721
     15 C          61.6587   85.7015   10.7237 C.ar    1  UNL1        0.0356
     16 C          61.0923   86.5762    9.6447 C.ar    1  UNL1       -0.0202
     17 C          61.3466   88.0543    9.6669 C.ar    1  UNL1       -0.0068
     18 C          62.1672   88.6577   10.7680 C.ar    1  UNL1        0.0368
     19 C          62.7336   87.7830   11.8469 C.ar    1  UNL1        0.1721
     20 C          60.7802   88.9290    8.5880 C.3     1  UNL1        0.0990
     21 N          59.9596   88.3256    7.4869 N.3     1  UNL1       -0.2683
     22 C          59.7053   86.8475    7.4647 C.3     1  UNL1        0.0771
     23 C          60.2717   85.9728    8.5436 C.3     1  UNL1        0.0435
     24 C          62.8981   83.9400   12.8158 C.3     1  UNL1        0.2526
     25 O          63.0457   85.4301   12.9037 O.3     1  UNL1       -0.4684
     26 O          63.5543   88.3864   12.9481 O.3     1  UNL1       -0.4684
     27 C          63.1646   89.7109   13.5343 C.3     1  UNL1        0.2526
     28 C          61.3249   94.0197   -2.5422 C.ar    1  UNL1        0.0560
     29 C          62.7963   93.7813   -2.7090 C.ar    1  UNL1        0.0444
     30 C          63.3950   93.7180   -4.0828 C.ar    1  UNL1        0.1726
     31 C          62.5221   93.8931   -5.2901 C.ar    1  UNL1        0.1736
     32 C          61.0506   94.1315   -5.1234 C.ar    1  UNL1        0.0548
     33 C          60.4520   94.1948   -3.7495 C.ar    1  UNL1        0.0568
     34 N          58.9804   94.4333   -3.5828 N.am    1  UNL1       -0.2802
     35 C          58.2940   95.4869   -4.4006 C.2     1  UNL1        0.2495
     36 O          59.0791   96.3021   -5.3850 O.2     1  UNL1       -0.2698
     37 H          58.4651   93.8982   -2.9367 H       1  UNL1        0.1552
     38 C          56.8225   95.7254   -4.2339 C.ar    1  UNL1        0.0538
     39 C          56.1743   95.5102   -2.8984 C.ar    1  UNL1        0.0060
     40 C          54.7029   95.7487   -2.7318 C.ar    1  UNL1        0.0177
     41 C          53.8795   96.2023   -3.9007 C.ar    1  UNL1        0.0655
     42 C          54.5277   96.4175   -5.2362 C.ar    1  UNL1        0.0177
     43 C          55.9991   96.1790   -5.4028 C.ar    1  UNL1        0.0060
     44 N          52.4079   96.4408   -3.7341 N.ar    1  UNL1       -0.2864
     45 C          51.4169   96.6451   -4.8414 C.ar    1  UNL1        0.1022
     46 C          50.0656   96.8474   -4.2225 C.ar    1  UNL1        0.1196
     47 N          50.2214   96.7682   -2.7328 N.ar    1  UNL1       -0.2220
     48 C          51.6691   96.5169   -2.4309 C.ar    1  UNL1        0.1828
     49 O          64.8665   93.4795   -4.2495 O.3     1  UNL1       -0.4684
     50 C          65.3509   92.3690   -5.1338 C.3     1  UNL1        0.2526
     51 O          63.1207   93.8298   -6.6640 O.3     1  UNL1       -0.4683
     52 C          63.2767   95.0834   -7.4726 C.3     1  UNL1        0.2526
@<TRIPOS>BOND
     1    24    25    1
     2    25    14    1
     3    14    15   ar
     4    15    16   ar
     5    16    17   ar
     6    17    18   ar
     7    18    19   ar
     8    19    26    1
     9    26    27    1
    10    17    20    1
    11    20    21    1
    12    21    13    1
    13    13    12    1
    14    12     6    1
    15     6     7   ar
    16     7     8   ar
    17     8     9   ar
    18     9     1    1
    19     1     2   ar
    20     2     3   ar
    21     3     4   ar
    22     4    28    1
    23    28    29   ar
    24    29    30   ar
    25    30    49    1
    26    49    50    1
    27    30    31   ar
    28    31    51    1
    29    51    52    1
    30    31    32   ar
    31    32    33   ar
    32    33    34    1
    33    34    35   am
    34    35    36    2
    35    35    38    1
    36    38    39   ar
    37    39    40   ar
    38    40    41   ar
    39    41    44    1
    40    44    45   ar
    41    45    46   ar
    42    46    47   ar
    43    47    48   ar
    44    41    42   ar
    45    42    43   ar
    46     4     5   ar
    47     9    10   ar
    48    10    11   ar
    49    21    22    1
    50    22    23    1
    51    19    14   ar
    52    11     6   ar
    53    23    16    1
    54     5     1   ar
    55    33    28   ar
    56    43    38   ar
    57    48    44   ar
    58    34    37    1
