@<TRIPOS>MOLECULE
*****
 19 19 0 0 0
SMALL
GASTEIGER

@<TRIPOS>ATOM
      1 C          62.5452   88.3775   11.2187 C.3     1  UNL1        0.2316
      2 C          63.5329   89.6216   13.2746 C.cat   1  UNL1        0.3967
      3 N          63.1837   88.3412   12.5756 N.pl3   1  UNL1       -0.0959
      4 C          64.3212   91.6471   11.8512 C.3     1  UNL1        0.2169
      5 N          63.2436   90.9383   12.6169 N.pl3   1  UNL1       -0.2580
      6 H          62.3464   91.3373   12.6877 H       1  UNL1        0.2589
      7 N          64.1715   89.5853   14.6314 N.pl3   1  UNL1       -0.1776
      8 H          64.7523   88.8310   14.8821 H       1  UNL1        0.2780
      9 C          63.9249   90.6983   15.6064 C.1     1  UNL1        0.2551
     10 N          63.6784   91.8113   16.5812 N.1     1  UNL1       -0.1538
     11 C          62.2066   87.0970   10.5147 C.3     1  UNL1        0.1048
     12 S          61.7453   85.9071   11.3029 S.3     1  UNL1       -0.1303
     13 C          62.7031   84.7948   11.6116 C.3     1  UNL1        0.1007
     14 C          62.7177   84.1750   12.9775 C.2     1  UNL1        0.0716
     15 N          62.7465   84.9158   14.2815 N.2     1  UNL1       -0.2302
     16 C          62.7527   83.9043   15.3892 C.2     1  UNL1        0.1939
     17 N          62.7276   82.5384   14.7698 N.2     1  UNL1       -0.2464
     18 C          62.7060   82.7058   13.2793 C.3     1  UNL1        0.1415
     19 C          62.6777   81.5982   12.2681 C.3     1  UNL1        0.0325
@<TRIPOS>BOND
     1     4     5    1
     2     5     2    1
     3     2     3    2
     4     3     1    1
     5     1    11    1
     6    11    12    1
     7    12    13    1
     8    13    14    1
     9    14    15    2
    10    15    16    1
    11    16    17    2
    12    17    18    1
    13    18    19    1
    14     2     7    1
    15     7     9    1
    16     9    10    3
    17    18    14    1
    18     5     6    1
    19     7     8    1
@<TRIPOS>MOLECULE
*****
 19 19 0 0 0
SMALL
GASTEIGER

@<TRIPOS>ATOM
      1 C          66.1751   93.9345   13.1110 C.3     1  UNL1        0.2316
      2 C          66.5974   94.9174   10.7434 C.cat   1  UNL1        0.3967
      3 N          66.8950   93.8909   11.7958 N.pl3   1  UNL1       -0.0959
      4 C          64.9310   96.7038    9.8589 C.3     1  UNL1        0.2169
      5 N          65.5798   95.9877   11.0062 N.pl3   1  UNL1       -0.2580
      6 H          65.3377   96.2202   11.9318 H       1  UNL1        0.2589
      7 N          67.3173   94.8738    9.4282 N.pl3   1  UNL1       -0.1776
      8 H          67.3570   95.6781    8.8618 H       1  UNL1        0.2780
      9 C          67.9769   93.6047    8.9760 C.1     1  UNL1        0.2551
     10 N          68.6364   92.3356    8.5238 N.1     1  UNL1       -0.1538
     11 C          66.8551   93.4441   14.3549 C.3     1  UNL1        0.1048
     12 S          66.1990   92.3970   15.2052 S.3     1  UNL1       -0.1303
     13 C          65.9644   91.0219   14.6538 C.3     1  UNL1        0.1007
     14 C          64.6413   90.6768   14.0372 C.2     1  UNL1        0.0716
     15 N          64.2640   90.8635   12.5974 N.2     1  UNL1       -0.2302
     16 C          62.8527   90.3865   12.4224 C.2     1  UNL1        0.1939
     17 N          62.3577   89.9050   13.7539 N.2     1  UNL1       -0.2464
     18 C          63.4631   90.0844   14.7519 C.3     1  UNL1        0.1415
     19 C          63.4011   89.7331   16.2089 C.3     1  UNL1        0.0325
@<TRIPOS>BOND
     1     4     5    1
     2     5     2    1
     3     2     3    2
     4     3     1    1
     5     1    11    1
     6    11    12    1
     7    12    13    1
     8    13    14    1
     9    14    15    2
    10    15    16    1
    11    16    17    2
    12    17    18    1
    13    18    19    1
    14     2     7    1
    15     7     9    1
    16     9    10    3
    17    18    14    1
    18     5     6    1
    19     7     8    1
@<TRIPOS>MOLECULE
*****
 19 19 0 0 0
SMALL
GASTEIGER

@<TRIPOS>ATOM
      1 C          65.8284   91.4849   14.5825 C.3     1  UNL1        0.2316
      2 C          63.4536   90.4341   14.5034 C.cat   1  UNL1        0.3967
      3 N          64.6546   90.9850   13.7935 N.pl3   1  UNL1       -0.0959
      4 C          63.0892   89.1004   16.7030 C.3     1  UNL1        0.2169
      5 N          63.4263   90.3830   16.0023 N.pl3   1  UNL1       -0.2580
      6 H          63.6295   91.1914   16.5261 H       1  UNL1        0.2589
      7 N          62.2799   89.9341   13.7144 N.pl3   1  UNL1       -0.1776
      8 H          61.4358   89.7166   14.1720 H       1  UNL1        0.2780
      9 C          62.3923   89.7656   12.2281 C.1     1  UNL1        0.2551
     10 N          62.5047   89.5970   10.7418 N.1     1  UNL1       -0.1538
     11 C          66.8335   92.3928   13.9378 C.3     1  UNL1        0.1048
     12 S          66.3878   93.4075   12.9269 S.3     1  UNL1       -0.1303
     13 C          66.3081   93.0356   11.4759 C.3     1  UNL1        0.1007
     14 C          66.6665   94.0419   10.4229 C.2     1  UNL1        0.0716
     15 N          66.0621   95.4056   10.2645 N.2     1  UNL1       -0.2302
     16 C          66.7142   96.0678    9.0872 C.2     1  UNL1        0.1939
     17 N          67.7217   95.1134    8.5179 N.2     1  UNL1       -0.2464
     18 C          67.6922   93.8614    9.3435 C.3     1  UNL1        0.1415
     19 C          68.5397   92.6427    9.1274 C.3     1  UNL1        0.0325
@<TRIPOS>BOND
     1     4     5    1
     2     5     2    1
     3     2     3    2
     4     3     1    1
     5     1    11    1
     6    11    12    1
     7    12    13    1
     8    13    14    1
     9    14    15    2
    10    15    16    1
    11    16    17    2
    12    17    18    1
    13    18    19    1
    14     2     7    1
    15     7     9    1
    16     9    10    3
    17    18    14    1
    18     5     6    1
    19     7     8    1
@<TRIPOS>MOLECULE
*****
 19 19 0 0 0
SMALL
GASTEIGER

@<TRIPOS>ATOM
      1 C          61.6943   89.1101   11.6352 C.3     1  UNL1        0.2316
      2 C          63.6636   89.3760   13.3089 C.cat   1  UNL1        0.3967
      3 N          62.6583   89.9869   12.3783 N.pl3   1  UNL1       -0.0959
      4 C          64.3957   87.3020   14.6919 C.3     1  UNL1        0.2169
      5 N          63.7050   87.8882   13.4964 N.pl3   1  UNL1       -0.2580
      6 H          63.2789   87.2966   12.8348 H       1  UNL1        0.2589
      7 N          64.6275   90.2527   14.0520 N.pl3   1  UNL1       -0.1776
      8 H          65.5650   90.3137   13.7576 H       1  UNL1        0.2780
      9 C          64.1631   91.0364   15.2437 C.1     1  UNL1        0.2551
     10 N          63.6987   91.8201   16.4354 N.1     1  UNL1       -0.1538
     11 C          62.1695   88.2899   10.4726 C.3     1  UNL1        0.1048
     12 S          61.4884   86.9956   10.1397 S.3     1  UNL1       -0.1303
     13 C          62.2921   85.7351   10.0166 C.3     1  UNL1        0.1007
     14 C          62.6270   84.9365   11.2414 C.2     1  UNL1        0.0716
     15 N          62.2038   85.2551   12.6447 N.2     1  UNL1       -0.2302
     16 C          62.7591   84.1946   13.5486 C.2     1  UNL1        0.1939
     17 N          63.5256   83.2205   12.7038 N.2     1  UNL1       -0.2464
     18 C          63.4439   83.6790   11.2779 C.3     1  UNL1        0.1415
     19 C          64.0694   82.9993   10.0961 C.3     1  UNL1        0.0325
@<TRIPOS>BOND
     1     4     5    1
     2     5     2    1
     3     2     3    2
     4     3     1    1
     5     1    11    1
     6    11    12    1
     7    12    13    1
     8    13    14    1
     9    14    15    2
    10    15    16    1
    11    16    17    2
    12    17    18    1
    13    18    19    1
    14     2     7    1
    15     7     9    1
    16     9    10    3
    17    18    14    1
    18     5     6    1
    19     7     8    1
@<TRIPOS>MOLECULE
*****
 19 19 0 0 0
SMALL
GASTEIGER

@<TRIPOS>ATOM
      1 C          64.5690   86.8830   14.7417 C.3     1  UNL1        0.2316
      2 C          63.4734   88.8602   13.4610 C.cat   1  UNL1        0.3967
      3 N          64.1898   88.3324   14.6685 N.pl3   1  UNL1       -0.0959
      4 C          62.3847   88.4574   11.1366 C.3     1  UNL1        0.2169
      5 N          63.1360   87.9385   12.3266 N.pl3   1  UNL1       -0.2580
      6 H          63.4078   86.9929   12.3632 H       1  UNL1        0.2589
      7 N          63.0942   90.3096   13.3878 N.pl3   1  UNL1       -0.1776
      8 H          62.1450   90.5691   13.3560 H       1  UNL1        0.2780
      9 C          64.1612   91.3636   13.3631 C.1     1  UNL1        0.2551
     10 N          65.2282   92.4176   13.3384 N.1     1  UNL1       -0.1538
     11 C          63.8824   85.9766   15.7201 C.3     1  UNL1        0.1048
     12 S          63.3169   84.6660   15.2590 S.3     1  UNL1       -0.1303
     13 C          64.1814   83.7002   14.5041 C.3     1  UNL1        0.1007
     14 C          63.5618   82.5247   13.8083 C.2     1  UNL1        0.0716
     15 N          62.7374   81.4513   14.4549 N.2     1  UNL1       -0.2302
     16 C          62.3239   80.4794   13.3899 C.2     1  UNL1        0.1939
     17 N          62.8929   80.9520   12.0849 N.2     1  UNL1       -0.2464
     18 C          63.6579   82.2161   12.3435 C.3     1  UNL1        0.1415
     19 C          64.3905   83.0288   11.3174 C.3     1  UNL1        0.0325
@<TRIPOS>BOND
     1     4     5    1
     2     5     2    1
     3     2     3    2
     4     3     1    1
     5     1    11    1
     6    11    12    1
     7    12    13    1
     8    13    14    1
     9    14    15    2
    10    15    16    1
    11    16    17    2
    12    17    18    1
    13    18    19    1
    14     2     7    1
    15     7     9    1
    16     9    10    3
    17    18    14    1
    18     5     6    1
    19     7     8    1
@<TRIPOS>MOLECULE
*****
 19 19 0 0 0
SMALL
GASTEIGER

@<TRIPOS>ATOM
      1 C          62.3765   84.7277   11.6251 C.3     1  UNL1        0.2316
      2 C          63.0963   84.0857   14.0375 C.cat   1  UNL1        0.3967
      3 N          62.8023   85.1333   13.0050 N.pl3   1  UNL1       -0.0959
      4 C          61.8924   81.8022   14.3315 C.3     1  UNL1        0.2169
      5 N          62.9645   82.6324   13.6901 N.pl3   1  UNL1       -0.2580
      6 H          63.5816   82.2235   13.0411 H       1  UNL1        0.2589
      7 N          63.5221   84.4913   15.4174 N.pl3   1  UNL1       -0.1776
      8 H          64.4149   84.2433   15.7499 H       1  UNL1        0.2780
      9 C          62.5875   85.2749   16.2908 C.1     1  UNL1        0.2551
     10 N          61.6530   86.0584   17.1641 N.1     1  UNL1       -0.1538
     11 C          62.1784   85.7699   10.5646 C.3     1  UNL1        0.1048
     12 S          61.4297   87.0302   10.8822 S.3     1  UNL1       -0.1303
     13 C          62.0210   88.3629   10.5300 C.3     1  UNL1        0.1007
     14 C          62.7869   89.1394   11.5598 C.2     1  UNL1        0.0716
     15 N          63.1749   88.6509   12.9239 N.2     1  UNL1       -0.2302
     16 C          63.9270   89.7503   13.6135 C.2     1  UNL1        0.1939
     17 N          64.0039   90.9184   12.6756 N.2     1  UNL1       -0.2464
     18 C          63.2992   90.5409   11.4063 C.3     1  UNL1        0.1415
     19 C          63.1356   91.4118   10.1961 C.3     1  UNL1        0.0325
@<TRIPOS>BOND
     1     4     5    1
     2     5     2    1
     3     2     3    2
     4     3     1    1
     5     1    11    1
     6    11    12    1
     7    12    13    1
     8    13    14    1
     9    14    15    2
    10    15    16    1
    11    16    17    2
    12    17    18    1
    13    18    19    1
    14     2     7    1
    15     7     9    1
    16     9    10    3
    17    18    14    1
    18     5     6    1
    19     7     8    1
@<TRIPOS>MOLECULE
*****
 19 19 0 0 0
SMALL
GASTEIGER

@<TRIPOS>ATOM
      1 C          62.0344   88.0840    9.9382 C.3     1  UNL1        0.2316
      2 C          61.7910   89.4087   12.1598 C.cat   1  UNL1        0.3967
      3 N          62.6593   88.7721   11.1155 N.pl3   1  UNL1       -0.0959
      4 C          59.5645   90.4849   11.3632 C.3     1  UNL1        0.2169
      5 N          60.2977   89.3572   12.0269 N.pl3   1  UNL1       -0.2580
      6 H          59.7989   88.5832   12.3753 H       1  UNL1        0.2589
      7 N          62.4158   90.0968   13.3371 N.pl3   1  UNL1       -0.1776
      8 H          62.0711   89.9308   14.2443 H       1  UNL1        0.2780
      9 C          63.5659   91.0378   13.1323 C.1     1  UNL1        0.2551
     10 N          64.7159   91.9788   12.9274 N.1     1  UNL1       -0.1538
     11 C          61.8869   86.5912    9.9334 C.3     1  UNL1        0.1048
     12 S          61.7836   85.8436   11.2297 S.3     1  UNL1       -0.1303
     13 C          62.6842   84.6737   11.4946 C.3     1  UNL1        0.1007
     14 C          62.6938   84.0259   12.8475 C.2     1  UNL1        0.0716
     15 N          62.6068   84.7361   14.1658 N.2     1  UNL1       -0.2302
     16 C          62.6513   83.7032   15.2527 C.2     1  UNL1        0.1939
     17 N          62.7659   82.3546   14.6060 N.2     1  UNL1       -0.2464
     18 C          62.7921   82.5540   13.1196 C.3     1  UNL1        0.1415
     19 C          62.8981   81.4716   12.0866 C.3     1  UNL1        0.0325
@<TRIPOS>BOND
     1     4     5    1
     2     5     2    1
     3     2     3    2
     4     3     1    1
     5     1    11    1
     6    11    12    1
     7    12    13    1
     8    13    14    1
     9    14    15    2
    10    15    16    1
    11    16    17    2
    12    17    18    1
    13    18    19    1
    14     2     7    1
    15     7     9    1
    16     9    10    3
    17    18    14    1
    18     5     6    1
    19     7     8    1
@<TRIPOS>MOLECULE
*****
 19 19 0 0 0
SMALL
GASTEIGER

@<TRIPOS>ATOM
      1 C          63.8501   83.5825   11.6400 C.3     1  UNL1        0.2316
      2 C          62.9312   82.8413   13.9543 C.cat   1  UNL1        0.3967
      3 N          63.8164   83.7304   13.1323 N.pl3   1  UNL1       -0.0959
      4 C          61.1529   80.9529   14.1004 C.3     1  UNL1        0.2169
      5 N          62.0795   81.8043   13.2841 N.pl3   1  UNL1       -0.2580
      6 H          62.1287   81.6824   12.3084 H       1  UNL1        0.2589
      7 N          62.8976   82.9893   15.4466 N.pl3   1  UNL1       -0.1776
      8 H          63.1595   82.2347   16.0221 H       1  UNL1        0.2780
      9 C          62.4650   84.2871   16.0621 C.1     1  UNL1        0.2551
     10 N          62.0324   85.5847   16.6776 N.1     1  UNL1       -0.1538
     11 C          62.9375   84.4095   10.7835 C.3     1  UNL1        0.1048
     12 S          62.3125   85.6550   11.3387 S.3     1  UNL1       -0.1303
     13 C          61.0945   86.2381   10.6857 C.3     1  UNL1        0.1007
     14 C          60.8831   87.7231   10.6833 C.2     1  UNL1        0.0716
     15 N          61.2305   88.6650   11.7978 N.2     1  UNL1       -0.2302
     16 C          60.8493   90.0510   11.3693 C.2     1  UNL1        0.1939
     17 N          60.2662   89.9658    9.9899 N.2     1  UNL1       -0.2464
     18 C          60.2871   88.5271    9.5659 C.3     1  UNL1        0.1415
     19 C          59.7979   87.9871    8.2547 C.3     1  UNL1        0.0325
@<TRIPOS>BOND
     1     4     5    1
     2     5     2    1
     3     2     3    2
     4     3     1    1
     5     1    11    1
     6    11    12    1
     7    12    13    1
     8    13    14    1
     9    14    15    2
    10    15    16    1
    11    16    17    2
    12    17    18    1
    13    18    19    1
    14     2     7    1
    15     7     9    1
    16     9    10    3
    17    18    14    1
    18     5     6    1
    19     7     8    1
@<TRIPOS>MOLECULE
*****
 19 19 0 0 0
SMALL
GASTEIGER

@<TRIPOS>ATOM
      1 C          63.0541   84.8265   11.9750 C.3     1  UNL1        0.2316
      2 C          62.9853   82.9772   13.7986 C.cat   1  UNL1        0.3967
      3 N          62.7787   83.4077   12.3767 N.pl3   1  UNL1       -0.0959
      4 C          62.5116   84.5254   15.8305 C.3     1  UNL1        0.2169
      5 N          63.4672   83.9654   14.8190 N.pl3   1  UNL1       -0.2580
      6 H          64.4107   84.2465   14.8248 H       1  UNL1        0.2589
      7 N          62.7099   81.5584   14.2002 N.pl3   1  UNL1       -0.1776
      8 H          63.4547   80.9625   14.4440 H       1  UNL1        0.2780
      9 C          61.2998   81.0477   14.2304 C.1     1  UNL1        0.2551
     10 N          59.8898   80.5370   14.2605 N.1     1  UNL1       -0.1538
     11 C          61.9226   85.7246   11.5709 C.3     1  UNL1        0.1048
     12 S          62.1833   87.1713   11.2723 S.3     1  UNL1       -0.1303
     13 C          62.0911   87.6745    9.8623 C.3     1  UNL1        0.1007
     14 C          61.0705   87.0989    8.9258 C.2     1  UNL1        0.0716
     15 N          59.6621   87.5843    8.7501 N.2     1  UNL1       -0.2302
     16 C          59.0003   86.7223    7.7162 C.2     1  UNL1        0.1939
     17 N          59.9997   85.7041    7.2529 N.2     1  UNL1       -0.2464
     18 C          61.2791   85.9369    8.0005 C.3     1  UNL1        0.1415
     19 C          62.5449   85.1465    7.8492 C.3     1  UNL1        0.0325
@<TRIPOS>BOND
     1     4     5    1
     2     5     2    1
     3     2     3    2
     4     3     1    1
     5     1    11    1
     6    11    12    1
     7    12    13    1
     8    13    14    1
     9    14    15    2
    10    15    16    1
    11    16    17    2
    12    17    18    1
    13    18    19    1
    14     2     7    1
    15     7     9    1
    16     9    10    3
    17    18    14    1
    18     5     6    1
    19     7     8    1
