@<TRIPOS>MOLECULE
*****
 32 36 0 0 0
SMALL
GASTEIGER

@<TRIPOS>ATOM
      1 C          62.3085   89.6614   11.8253 C.ar    1  UNL1        0.2076
      2 N          61.7299   90.5054   10.7285 N.ar    1  UNL1       -0.1277
      3 N          61.2866   89.5913    9.6249 N.ar    1  UNL1       -0.1271
      4 C          61.5912   88.1823   10.0396 C.ar    1  UNL1        0.1865
      5 C          61.3752   86.8655    9.3547 C.ar    1  UNL1        0.0422
      6 C          61.7906   85.5919   10.0296 C.ar    1  UNL1        0.0241
      7 C          62.4221   85.6352   11.3894 C.ar    1  UNL1        0.1016
      8 N          62.6382   86.9521   12.0744 N.ar    1  UNL1       -0.1625
      9 N          62.2228   88.2256   11.3995 N.ar    1  UNL1       -0.1915
     10 C          62.8376   84.3617   12.0644 C.ar    1  UNL1        0.0240
     11 C          63.4312   84.4017   13.4413 C.ar    1  UNL1        0.0337
     12 C          63.8467   83.1281   14.1162 C.ar    1  UNL1        0.1697
     13 F          64.4403   83.1681   15.4931 F       1  UNL1       -0.2017
     14 C          63.6684   81.8146   13.4142 C.ar    1  UNL1        0.1946
     15 F          64.0839   80.5410   14.0891 F       1  UNL1       -0.1994
     16 C          63.0748   81.7746   12.0373 C.ar    1  UNL1        0.1697
     17 F          62.8965   80.4610   11.3352 F       1  UNL1       -0.2017
     18 C          62.6593   83.0481   11.3624 C.ar    1  UNL1        0.0337
     19 C          62.8736   90.1647   13.1204 C.3     1  UNL1        0.2721
     20 O          64.3485   90.0774   13.3795 O.3     1  UNL1       -0.4671
     21 C          66.0625   94.4293   10.6641 C.ar    1  UNL1        0.1402
     22 C          65.2945   93.1995   10.2799 C.ar    1  UNL1        0.0371
     23 C          64.9791   92.1588   11.3131 C.ar    1  UNL1        0.0076
     24 C          65.4319   92.3479   12.7305 C.ar    1  UNL1        0.0519
     25 C          65.1165   91.3072   13.7637 C.ar    1  UNL1        0.1421
     26 C          65.5692   91.4963   15.1812 C.ar    1  UNL1        0.0576
     27 C          66.3373   92.7261   15.5655 C.ar    1  UNL1        0.1019
     28 N          66.6527   93.7668   14.5323 N.ar    1  UNL1       -0.2435
     29 C          66.1999   93.5777   13.1148 C.ar    1  UNL1        0.0872
     30 C          66.5152   94.6184   12.0816 C.ar    1  UNL1        0.0561
     31 C          67.4602   95.2219    8.6225 C.3     1  UNL1        0.2525
     32 O          66.3779   95.4700    9.6309 O.3     1  UNL1       -0.4714
@<TRIPOS>BOND
     1    31    32    1
     2    32    21    1
     3    21    22   ar
     4    22    23   ar
     5    23    24   ar
     6    24    25   ar
     7    25    20    1
     8    20    19    1
     9    19     1    1
    10     1     2   ar
    11     2     3   ar
    12     3     4   ar
    13     4     5   ar
    14     5     6   ar
    15     6     7   ar
    16     7    10    1
    17    10    11   ar
    18    11    12   ar
    19    12    13    1
    20    12    14   ar
    21    14    15    1
    22    14    16   ar
    23    16    17    1
    24    16    18   ar
    25     7     8   ar
    26     8     9   ar
    27    25    26   ar
    28    26    27   ar
    29    27    28   ar
    30    28    29   ar
    31    29    30   ar
    32    30    21   ar
    33    29    24   ar
    34     9     1   ar
    35     9     4   ar
    36    18    10   ar
@<TRIPOS>MOLECULE
*****
 32 36 0 0 0
SMALL
GASTEIGER

@<TRIPOS>ATOM
      1 C          63.6263   85.6990   15.5983 C.ar    1  UNL1        0.2076
      2 N          63.1341   85.3216   16.9640 N.ar    1  UNL1       -0.1277
      3 N          62.8493   86.5856   17.7198 N.ar    1  UNL1       -0.1271
      4 C          63.1655   87.7443   16.8211 C.ar    1  UNL1        0.1865
      5 C          63.0783   89.2274   17.0272 C.ar    1  UNL1        0.0422
      6 C          63.4712   90.1627   15.9223 C.ar    1  UNL1        0.0241
      7 C          63.9515   89.6147   14.6111 C.ar    1  UNL1        0.1016
      8 N          64.0387   88.1315   14.4050 N.ar    1  UNL1       -0.1625
      9 N          63.6457   87.1963   15.5099 N.ar    1  UNL1       -0.1915
     10 C          64.3444   90.5499   13.5062 C.ar    1  UNL1        0.0240
     11 C          65.4893   91.4997   13.6991 C.ar    1  UNL1        0.0337
     12 C          65.8822   92.4349   12.5940 C.ar    1  UNL1        0.1697
     13 F          67.0271   93.3846   12.7869 F       1  UNL1       -0.2017
     14 C          65.1303   92.4203   11.2962 C.ar    1  UNL1        0.1946
     15 F          65.5233   93.3555   10.1912 F       1  UNL1       -0.1994
     16 C          63.9855   91.4706   11.1033 C.ar    1  UNL1        0.1697
     17 F          63.2335   91.4559    9.8055 F       1  UNL1       -0.2017
     18 C          63.5925   90.5354   12.2083 C.ar    1  UNL1        0.0337
     19 C          64.0285   84.7464   14.5116 C.3     1  UNL1        0.2721
     20 O          62.9873   84.1602   13.6048 O.3     1  UNL1       -0.4671
     21 C          61.1373   87.0534    9.4267 C.ar    1  UNL1        0.1402
     22 C          60.9031   87.0980   10.9076 C.ar    1  UNL1        0.0371
     23 C          61.5978   86.1187   11.8067 C.ar    1  UNL1        0.0076
     24 C          62.5268   85.0949   11.2249 C.ar    1  UNL1        0.0519
     25 C          63.2215   84.1156   12.1239 C.ar    1  UNL1        0.1421
     26 C          64.1506   83.0917   11.5422 C.ar    1  UNL1        0.0576
     27 C          64.3849   83.0471   10.0612 C.ar    1  UNL1        0.1019
     28 N          63.6902   84.0264    9.1621 N.ar    1  UNL1       -0.2435
     29 C          62.7611   85.0503    9.7440 C.ar    1  UNL1        0.0872
     30 C          62.0664   86.0296    8.8449 C.ar    1  UNL1        0.0561
     31 C          59.2837   87.5868    7.6862 C.3     1  UNL1        0.2525
     32 O          60.4426   88.0327    8.5276 O.3     1  UNL1       -0.4714
@<TRIPOS>BOND
     1    31    32    1
     2    32    21    1
     3    21    22   ar
     4    22    23   ar
     5    23    24   ar
     6    24    25   ar
     7    25    20    1
     8    20    19    1
     9    19     1    1
    10     1     2   ar
    11     2     3   ar
    12     3     4   ar
    13     4     5   ar
    14     5     6   ar
    15     6     7   ar
    16     7    10    1
    17    10    11   ar
    18    11    12   ar
    19    12    13    1
    20    12    14   ar
    21    14    15    1
    22    14    16   ar
    23    16    17    1
    24    16    18   ar
    25     7     8   ar
    26     8     9   ar
    27    25    26   ar
    28    26    27   ar
    29    27    28   ar
    30    28    29   ar
    31    29    30   ar
    32    30    21   ar
    33    29    24   ar
    34     9     1   ar
    35     9     4   ar
    36    18    10   ar
@<TRIPOS>MOLECULE
*****
 32 36 0 0 0
SMALL
GASTEIGER

@<TRIPOS>ATOM
      1 C          63.6050   85.6584   15.6097 C.ar    1  UNL1        0.2076
      2 N          63.1204   85.2763   16.9768 N.ar    1  UNL1       -0.1277
      3 N          62.8437   86.5377   17.7399 N.ar    1  UNL1       -0.1271
      4 C          63.1573   87.6995   16.8444 C.ar    1  UNL1        0.1865
      5 C          63.0753   89.1819   17.0576 C.ar    1  UNL1        0.0422
      6 C          63.4637   90.1210   15.9543 C.ar    1  UNL1        0.0241
      7 C          63.9342   89.5776   14.6378 C.ar    1  UNL1        0.1016
      8 N          64.0162   88.0951   14.4245 N.ar    1  UNL1       -0.1625
      9 N          63.6278   87.1560   15.5278 N.ar    1  UNL1       -0.1915
     10 C          64.3226   90.5166   13.5345 C.ar    1  UNL1        0.0240
     11 C          63.5657   90.5062   12.2395 C.ar    1  UNL1        0.0337
     12 C          63.9542   91.4453   11.1362 C.ar    1  UNL1        0.1697
     13 F          63.1973   91.4349    9.8412 F       1  UNL1       -0.2017
     14 C          65.0995   92.3948   11.3279 C.ar    1  UNL1        0.1946
     15 F          65.4880   93.3339   10.2246 F       1  UNL1       -0.1994
     16 C          65.8564   92.4052   12.6229 C.ar    1  UNL1        0.1697
     17 F          67.0017   93.3546   12.8146 F       1  UNL1       -0.2017
     18 C          65.4679   91.4661   13.7262 C.ar    1  UNL1        0.0337
     19 C          63.9978   84.7095   14.5163 C.3     1  UNL1        0.2721
     20 O          62.9503   84.1366   13.6083 O.3     1  UNL1       -0.4671
     21 C          61.1545   87.0228    9.4017 C.ar    1  UNL1        0.1402
     22 C          60.9142   87.0807   10.8812 C.ar    1  UNL1        0.0371
     23 C          61.5929   86.0994   11.7902 C.ar    1  UNL1        0.0076
     24 C          62.5118   85.0601   11.2198 C.ar    1  UNL1        0.0519
     25 C          63.1905   84.0787   12.1288 C.ar    1  UNL1        0.1421
     26 C          64.1094   83.0394   11.5583 C.ar    1  UNL1        0.0576
     27 C          64.3497   82.9815   10.0788 C.ar    1  UNL1        0.1019
     28 N          63.6710   83.9628    9.1698 N.ar    1  UNL1       -0.2435
     29 C          62.7520   85.0022    9.7403 C.ar    1  UNL1        0.0872
     30 C          62.0734   85.9835    8.8313 C.ar    1  UNL1        0.0561
     31 C          59.2954   87.5748    7.6728 C.3     1  UNL1        0.2525
     32 O          60.4758   88.0042    8.4927 O.3     1  UNL1       -0.4714
@<TRIPOS>BOND
     1    31    32    1
     2    32    21    1
     3    21    22   ar
     4    22    23   ar
     5    23    24   ar
     6    24    25   ar
     7    25    20    1
     8    20    19    1
     9    19     1    1
    10     1     2   ar
    11     2     3   ar
    12     3     4   ar
    13     4     5   ar
    14     5     6   ar
    15     6     7   ar
    16     7    10    1
    17    10    11   ar
    18    11    12   ar
    19    12    13    1
    20    12    14   ar
    21    14    15    1
    22    14    16   ar
    23    16    17    1
    24    16    18   ar
    25     7     8   ar
    26     8     9   ar
    27    25    26   ar
    28    26    27   ar
    29    27    28   ar
    30    28    29   ar
    31    29    30   ar
    32    30    21   ar
    33    29    24   ar
    34     9     1   ar
    35     9     4   ar
    36    18    10   ar
@<TRIPOS>MOLECULE
*****
 32 36 0 0 0
SMALL
GASTEIGER

@<TRIPOS>ATOM
      1 C          64.1465   88.6959   14.2719 C.ar    1  UNL1        0.2076
      2 N          64.4581   90.0395   14.8616 N.ar    1  UNL1       -0.1277
      3 N          63.9893   91.0887   13.8977 N.ar    1  UNL1       -0.1271
      4 C          63.3879   90.3937   12.7122 C.ar    1  UNL1        0.1865
      5 C          62.7644   90.9163   11.4521 C.ar    1  UNL1        0.0422
      6 C          62.2380   89.9601   10.4231 C.ar    1  UNL1        0.0241
      7 C          62.3352   88.4812   10.6545 C.ar    1  UNL1        0.1016
      8 N          62.9587   87.9586   11.9147 N.ar    1  UNL1       -0.1625
      9 N          63.4851   88.9148   12.9435 N.ar    1  UNL1       -0.1915
     10 C          61.8088   87.5250    9.6256 C.ar    1  UNL1        0.0240
     11 C          62.6991   86.4504    9.0755 C.ar    1  UNL1        0.0337
     12 C          62.1727   85.4941    8.0466 C.ar    1  UNL1        0.1697
     13 F          63.0629   84.4195    7.4966 F       1  UNL1       -0.2017
     14 C          60.7562   85.6125    7.5679 C.ar    1  UNL1        0.1946
     15 F          60.2297   84.6563    6.5390 F       1  UNL1       -0.1994
     16 C          59.8659   86.6871    8.1180 C.ar    1  UNL1        0.1697
     17 F          58.4492   86.8056    7.6392 F       1  UNL1       -0.2017
     18 C          60.3922   87.6434    9.1468 C.ar    1  UNL1        0.0337
     19 C          64.4441   87.3667   14.9003 C.3     1  UNL1        0.2721
     20 O          64.6300   86.1540   14.0373 O.3     1  UNL1       -0.4671
     21 C          63.3758   81.8188   11.0568 C.ar    1  UNL1        0.1402
     22 C          64.1979   83.0488   10.8092 C.ar    1  UNL1        0.0371
     23 C          64.3419   84.0838   11.8852 C.ar    1  UNL1        0.0076
     24 C          63.6639   83.8890   13.2089 C.ar    1  UNL1        0.0519
     25 C          63.8079   84.9240   14.2850 C.ar    1  UNL1        0.1421
     26 C          63.1299   84.7292   15.6087 C.ar    1  UNL1        0.0576
     27 C          62.3077   83.4992   15.8564 C.ar    1  UNL1        0.1019
     28 N          62.1637   82.4641   14.7803 N.ar    1  UNL1       -0.2435
     29 C          62.8418   82.6590   13.4566 C.ar    1  UNL1        0.0872
     30 C          62.6978   81.6240   12.3805 C.ar    1  UNL1        0.0561
     31 C          62.8389   79.3808   10.3374 C.3     1  UNL1        0.2525
     32 O          63.2318   80.7838    9.9808 O.3     1  UNL1       -0.4714
@<TRIPOS>BOND
     1    31    32    1
     2    32    21    1
     3    21    22   ar
     4    22    23   ar
     5    23    24   ar
     6    24    25   ar
     7    25    20    1
     8    20    19    1
     9    19     1    1
    10     1     2   ar
    11     2     3   ar
    12     3     4   ar
    13     4     5   ar
    14     5     6   ar
    15     6     7   ar
    16     7    10    1
    17    10    11   ar
    18    11    12   ar
    19    12    13    1
    20    12    14   ar
    21    14    15    1
    22    14    16   ar
    23    16    17    1
    24    16    18   ar
    25     7     8   ar
    26     8     9   ar
    27    25    26   ar
    28    26    27   ar
    29    27    28   ar
    30    28    29   ar
    31    29    30   ar
    32    30    21   ar
    33    29    24   ar
    34     9     1   ar
    35     9     4   ar
    36    18    10   ar
@<TRIPOS>MOLECULE
*****
 32 36 0 0 0
SMALL
GASTEIGER

@<TRIPOS>ATOM
      1 C          64.6783   90.9491   14.1479 C.ar    1  UNL1        0.2076
      2 N          65.5165   92.1902   14.2326 N.ar    1  UNL1       -0.1277
      3 N          65.4600   92.8795   12.9016 N.ar    1  UNL1       -0.1271
      4 C          64.5867   92.0644   11.9942 C.ar    1  UNL1        0.1865
      5 C          64.1691   92.2545   10.5662 C.ar    1  UNL1        0.0422
      6 C          63.2683   91.2515    9.9083 C.ar    1  UNL1        0.0241
      7 C          62.7852   90.0585   10.6786 C.ar    1  UNL1        0.1016
      8 N          63.2029   89.8685   12.1067 N.ar    1  UNL1       -0.1625
      9 N          64.1037   90.8714   12.7645 N.ar    1  UNL1       -0.1915
     10 C          61.8845   89.0555   10.0209 C.ar    1  UNL1        0.0240
     11 C          62.0253   87.5970   10.3417 C.ar    1  UNL1        0.0337
     12 C          61.1245   86.5941    9.6838 C.ar    1  UNL1        0.1697
     13 F          61.2653   85.1356   10.0046 F       1  UNL1       -0.2017
     14 C          60.0830   87.0496    8.7053 C.ar    1  UNL1        0.1946
     15 F          59.1821   86.0466    8.0475 F       1  UNL1       -0.1994
     16 C          59.9421   88.5081    8.3845 C.ar    1  UNL1        0.1697
     17 F          58.9006   88.9637    7.4059 F       1  UNL1       -0.2017
     18 C          60.8429   89.5110    9.0423 C.ar    1  UNL1        0.0337
     19 C          64.4541   89.9595   15.2527 C.3     1  UNL1        0.2721
     20 O          64.5275   88.4886   14.9682 O.3     1  UNL1       -0.4671
     21 C          63.0729   83.3162   14.3510 C.ar    1  UNL1        0.1402
     22 C          63.8607   84.2818   13.5162 C.ar    1  UNL1        0.0371
     23 C          64.0830   85.6840   14.0002 C.ar    1  UNL1        0.0076
     24 C          63.5173   86.1207   15.3190 C.ar    1  UNL1        0.0519
     25 C          63.7396   87.5230   15.8030 C.ar    1  UNL1        0.1421
     26 C          63.1739   87.9597   17.1218 C.ar    1  UNL1        0.0576
     27 C          62.3860   86.9941   17.9567 C.ar    1  UNL1        0.1019
     28 N          62.1638   85.5919   17.4727 N.ar    1  UNL1       -0.2435
     29 C          62.7295   85.1552   16.1538 C.ar    1  UNL1        0.0872
     30 C          62.5072   83.7529   15.6698 C.ar    1  UNL1        0.0561
     31 C          63.8396   81.2759   12.9370 C.3     1  UNL1        0.2525
     32 O          62.8506   81.9140   13.8669 O.3     1  UNL1       -0.4714
@<TRIPOS>BOND
     1    31    32    1
     2    32    21    1
     3    21    22   ar
     4    22    23   ar
     5    23    24   ar
     6    24    25   ar
     7    25    20    1
     8    20    19    1
     9    19     1    1
    10     1     2   ar
    11     2     3   ar
    12     3     4   ar
    13     4     5   ar
    14     5     6   ar
    15     6     7   ar
    16     7    10    1
    17    10    11   ar
    18    11    12   ar
    19    12    13    1
    20    12    14   ar
    21    14    15    1
    22    14    16   ar
    23    16    17    1
    24    16    18   ar
    25     7     8   ar
    26     8     9   ar
    27    25    26   ar
    28    26    27   ar
    29    27    28   ar
    30    28    29   ar
    31    29    30   ar
    32    30    21   ar
    33    29    24   ar
    34     9     1   ar
    35     9     4   ar
    36    18    10   ar
@<TRIPOS>MOLECULE
*****
 32 36 0 0 0
SMALL
GASTEIGER

@<TRIPOS>ATOM
      1 C          64.3033   86.8167   14.5994 C.ar    1  UNL1        0.2076
      2 N          64.9947   85.7059   15.3330 N.ar    1  UNL1       -0.1277
      3 N          64.7466   84.4305   14.5835 N.ar    1  UNL1       -0.1271
      4 C          63.9019   84.7530   13.3866 C.ar    1  UNL1        0.1865
      5 C          63.3468   83.8944   12.2892 C.ar    1  UNL1        0.0422
      6 C          62.5177   84.5104   11.2014 C.ar    1  UNL1        0.0241
      7 C          62.2437   85.9851   11.2113 C.ar    1  UNL1        0.1016
      8 N          62.7989   86.8438   12.3088 N.ar    1  UNL1       -0.1625
      9 N          63.6279   86.2277   13.3965 N.ar    1  UNL1       -0.1915
     10 C          61.4147   86.6012   10.1236 C.ar    1  UNL1        0.0240
     11 C          60.9562   85.7655    8.9654 C.ar    1  UNL1        0.0337
     12 C          60.1271   86.3817    7.8777 C.ar    1  UNL1        0.1697
     13 F          59.6686   85.5459    6.7196 F       1  UNL1       -0.2017
     14 C          59.7565   87.8334    7.9482 C.ar    1  UNL1        0.1946
     15 F          58.9274   88.4495    6.8605 F       1  UNL1       -0.1994
     16 C          60.2150   88.6691    9.1064 C.ar    1  UNL1        0.1697
     17 F          59.8445   90.1209    9.1769 F       1  UNL1       -0.2017
     18 C          61.0441   88.0530   10.1940 C.ar    1  UNL1        0.0337
     19 C          64.2897   88.2625   14.9986 C.3     1  UNL1        0.2721
     20 O          63.3246   89.2105   14.3504 O.3     1  UNL1       -0.4671
     21 C          66.9172   93.2475   14.5636 C.ar    1  UNL1        0.1402
     22 C          66.4244   92.2402   15.5597 C.ar    1  UNL1        0.0371
     23 C          65.3912   91.2303   15.1566 C.ar    1  UNL1        0.0076
     24 C          64.8507   91.2277   13.7574 C.ar    1  UNL1        0.0519
     25 C          63.8175   90.2178   13.3543 C.ar    1  UNL1        0.1421
     26 C          63.2770   90.2153   11.9551 C.ar    1  UNL1        0.0576
     27 C          63.7698   91.2227   10.9589 C.ar    1  UNL1        0.1019
     28 N          64.8031   92.2326   11.3620 N.ar    1  UNL1       -0.2435
     29 C          65.3435   92.2351   12.7613 C.ar    1  UNL1        0.0872
     30 C          66.3768   93.2450   13.1644 C.ar    1  UNL1        0.0561
     31 C          69.0703   93.8603   15.8822 C.3     1  UNL1        0.2525
     32 O          67.9505   94.2574   14.9667 O.3     1  UNL1       -0.4714
@<TRIPOS>BOND
     1    31    32    1
     2    32    21    1
     3    21    22   ar
     4    22    23   ar
     5    23    24   ar
     6    24    25   ar
     7    25    20    1
     8    20    19    1
     9    19     1    1
    10     1     2   ar
    11     2     3   ar
    12     3     4   ar
    13     4     5   ar
    14     5     6   ar
    15     6     7   ar
    16     7    10    1
    17    10    11   ar
    18    11    12   ar
    19    12    13    1
    20    12    14   ar
    21    14    15    1
    22    14    16   ar
    23    16    17    1
    24    16    18   ar
    25     7     8   ar
    26     8     9   ar
    27    25    26   ar
    28    26    27   ar
    29    27    28   ar
    30    28    29   ar
    31    29    30   ar
    32    30    21   ar
    33    29    24   ar
    34     9     1   ar
    35     9     4   ar
    36    18    10   ar
@<TRIPOS>MOLECULE
*****
 32 36 0 0 0
SMALL
GASTEIGER

@<TRIPOS>ATOM
      1 C          61.3177   89.4564   11.0240 C.ar    1  UNL1        0.2076
      2 N          60.6750   90.1224    9.8436 N.ar    1  UNL1       -0.1277
      3 N          60.4340   89.0765    8.7958 N.ar    1  UNL1       -0.1271
      4 C          60.9277   87.7641    9.3286 C.ar    1  UNL1        0.1865
      5 C          60.9505   86.3857    8.7377 C.ar    1  UNL1        0.0422
      6 C          61.5195   85.2419    9.5239 C.ar    1  UNL1        0.0241
      7 C          62.0657   85.4767   10.9011 C.ar    1  UNL1        0.1016
      8 N          62.0429   86.8552   11.4920 N.ar    1  UNL1       -0.1625
      9 N          61.4739   87.9989   10.7057 N.ar    1  UNL1       -0.1915
     10 C          62.6347   84.3330   11.6873 C.ar    1  UNL1        0.0240
     11 C          63.3102   84.5892   13.0018 C.ar    1  UNL1        0.0337
     12 C          63.8792   83.4454   13.7880 C.ar    1  UNL1        0.1697
     13 F          64.5548   83.7015   15.1026 F       1  UNL1       -0.2017
     14 C          63.7727   82.0456   13.2598 C.ar    1  UNL1        0.1946
     15 F          64.3417   80.9018   14.0460 F       1  UNL1       -0.1994
     16 C          63.0971   81.7895   11.9453 C.ar    1  UNL1        0.1697
     17 F          62.9905   80.3896   11.4169 F       1  UNL1       -0.2017
     18 C          62.5281   82.9332   11.1590 C.ar    1  UNL1        0.0337
     19 C          61.7316   90.1297   12.2990 C.3     1  UNL1        0.2721
     20 O          63.1671   90.0965   12.7329 O.3     1  UNL1       -0.4671
     21 C          66.8574   93.0722   15.3361 C.ar    1  UNL1        0.1402
     22 C          65.9221   91.9765   15.7538 C.ar    1  UNL1        0.0371
     23 C          65.0038   91.3498   14.7468 C.ar    1  UNL1        0.0076
     24 C          65.0207   91.8190   13.3222 C.ar    1  UNL1        0.0519
     25 C          64.1023   91.1923   12.3153 C.ar    1  UNL1        0.1421
     26 C          64.1193   91.6615   10.8906 C.ar    1  UNL1        0.0576
     27 C          65.0546   92.7573   10.4729 C.ar    1  UNL1        0.1019
     28 N          65.9729   93.3839   11.4799 N.ar    1  UNL1       -0.2435
     29 C          65.9560   92.9147   12.9046 C.ar    1  UNL1        0.0872
     30 C          66.8743   93.5414   13.9115 C.ar    1  UNL1        0.0561
     31 C          69.1549   94.1262   15.9366 C.3     1  UNL1        0.2525
     32 O          67.7757   93.6989   16.3431 O.3     1  UNL1       -0.4714
@<TRIPOS>BOND
     1    31    32    1
     2    32    21    1
     3    21    22   ar
     4    22    23   ar
     5    23    24   ar
     6    24    25   ar
     7    25    20    1
     8    20    19    1
     9    19     1    1
    10     1     2   ar
    11     2     3   ar
    12     3     4   ar
    13     4     5   ar
    14     5     6   ar
    15     6     7   ar
    16     7    10    1
    17    10    11   ar
    18    11    12   ar
    19    12    13    1
    20    12    14   ar
    21    14    15    1
    22    14    16   ar
    23    16    17    1
    24    16    18   ar
    25     7     8   ar
    26     8     9   ar
    27    25    26   ar
    28    26    27   ar
    29    27    28   ar
    30    28    29   ar
    31    29    30   ar
    32    30    21   ar
    33    29    24   ar
    34     9     1   ar
    35     9     4   ar
    36    18    10   ar
@<TRIPOS>MOLECULE
*****
 32 36 0 0 0
SMALL
GASTEIGER

@<TRIPOS>ATOM
      1 C          64.2100   83.3910   12.4405 C.ar    1  UNL1        0.2076
      2 N          64.7365   82.2363   11.6409 N.ar    1  UNL1       -0.1277
      3 N          64.4051   82.4818   10.1987 N.ar    1  UNL1       -0.1271
      4 C          63.6737   83.7882   10.1070 C.ar    1  UNL1        0.1865
      5 C          63.1020   84.5387    8.9409 C.ar    1  UNL1        0.0422
      6 C          62.4097   85.8512    9.1603 C.ar    1  UNL1        0.0241
      7 C          62.2891   86.4131   10.5458 C.ar    1  UNL1        0.1016
      8 N          62.8608   85.6626   11.7119 N.ar    1  UNL1       -0.1625
      9 N          63.5532   84.3502   11.4925 N.ar    1  UNL1       -0.1915
     10 C          61.5968   87.7256   10.7652 C.ar    1  UNL1        0.0240
     11 C          60.2515   87.7624   11.4276 C.ar    1  UNL1        0.0337
     12 C          59.5592   89.0749   11.6470 C.ar    1  UNL1        0.1697
     13 F          58.2139   89.1117   12.3094 F       1  UNL1       -0.2017
     14 C          60.2122   90.3505   11.2041 C.ar    1  UNL1        0.1946
     15 F          59.5199   91.6631   11.4235 F       1  UNL1       -0.1994
     16 C          61.5575   90.3137   10.5417 C.ar    1  UNL1        0.1697
     17 F          62.2106   91.5894   10.0987 F       1  UNL1       -0.2017
     18 C          62.2498   89.0013   10.3223 C.ar    1  UNL1        0.0337
     19 C          64.3208   83.5575   13.9272 C.3     1  UNL1        0.2721
     20 O          64.7759   84.8654   14.5036 O.3     1  UNL1       -0.4671
     21 C          63.8298   90.0884   15.5403 C.ar    1  UNL1        0.1402
     22 C          64.6930   89.3644   14.5500 C.ar    1  UNL1        0.0371
     23 C          64.7206   87.8647   14.5346 C.ar    1  UNL1        0.0076
     24 C          63.8851   87.0891   15.5093 C.ar    1  UNL1        0.0519
     25 C          63.9127   85.5894   15.4939 C.ar    1  UNL1        0.1421
     26 C          63.0772   84.8138   16.4686 C.ar    1  UNL1        0.0576
     27 C          62.2140   85.5378   17.4590 C.ar    1  UNL1        0.1019
     28 N          62.1863   87.0375   17.4745 N.ar    1  UNL1       -0.2435
     29 C          63.0219   87.8131   16.4996 C.ar    1  UNL1        0.0872
     30 C          62.9943   89.3128   16.5151 C.ar    1  UNL1        0.0561
     31 C          64.8010   92.3482   16.3771 C.3     1  UNL1        0.2525
     32 O          63.8022   91.5881   15.5558 O.3     1  UNL1       -0.4714
@<TRIPOS>BOND
     1    31    32    1
     2    32    21    1
     3    21    22   ar
     4    22    23   ar
     5    23    24   ar
     6    24    25   ar
     7    25    20    1
     8    20    19    1
     9    19     1    1
    10     1     2   ar
    11     2     3   ar
    12     3     4   ar
    13     4     5   ar
    14     5     6   ar
    15     6     7   ar
    16     7    10    1
    17    10    11   ar
    18    11    12   ar
    19    12    13    1
    20    12    14   ar
    21    14    15    1
    22    14    16   ar
    23    16    17    1
    24    16    18   ar
    25     7     8   ar
    26     8     9   ar
    27    25    26   ar
    28    26    27   ar
    29    27    28   ar
    30    28    29   ar
    31    29    30   ar
    32    30    21   ar
    33    29    24   ar
    34     9     1   ar
    35     9     4   ar
    36    18    10   ar
@<TRIPOS>MOLECULE
*****
 32 36 0 0 0
SMALL
GASTEIGER

@<TRIPOS>ATOM
      1 C          61.6238   85.8362    8.6990 C.ar    1  UNL1        0.2076
      2 N          60.4336   85.6912    7.7978 N.ar    1  UNL1       -0.1277
      3 N          59.6742   86.9846    7.8211 N.ar    1  UNL1       -0.1271
      4 C          60.3951   87.9289    8.7369 C.ar    1  UNL1        0.1865
      5 C          60.1101   89.3433    9.1468 C.ar    1  UNL1        0.0422
      6 C          61.0300   90.0481   10.0993 C.ar    1  UNL1        0.0241
      7 C          62.2349   89.3383   10.6419 C.ar    1  UNL1        0.1016
      8 N          62.5199   87.9238   10.2319 N.ar    1  UNL1       -0.1625
      9 N          61.6000   87.2191    9.2795 N.ar    1  UNL1       -0.1915
     10 C          63.1548   90.0429   11.5943 C.ar    1  UNL1        0.0240
     11 C          63.8100   91.3303   11.1902 C.ar    1  UNL1        0.0337
     12 C          64.7299   92.0350   12.1428 C.ar    1  UNL1        0.1697
     13 F          65.3851   93.3224   11.7387 F       1  UNL1       -0.2017
     14 C          64.9946   91.4523   13.4993 C.ar    1  UNL1        0.1946
     15 F          65.9145   92.1569   14.4519 F       1  UNL1       -0.1994
     16 C          64.3394   90.1649   13.9034 C.ar    1  UNL1        0.1697
     17 F          64.6041   89.5821   15.2600 F       1  UNL1       -0.2017
     18 C          63.4195   89.4602   12.9509 C.ar    1  UNL1        0.0337
     19 C          62.6565   84.7830    8.9720 C.3     1  UNL1        0.2721
     20 O          63.4973   84.8606   10.2118 O.3     1  UNL1       -0.4671
     21 C          63.5912   85.1549   15.6113 C.ar    1  UNL1        0.1402
     22 C          63.7823   86.1569   14.5116 C.ar    1  UNL1        0.0371
     23 C          63.6873   85.7248   13.0784 C.ar    1  UNL1        0.0076
     24 C          63.4012   84.2907   12.7448 C.ar    1  UNL1        0.0519
     25 C          63.3062   83.8586   11.3115 C.ar    1  UNL1        0.1421
     26 C          63.0201   82.4244   10.9779 C.ar    1  UNL1        0.0576
     27 C          62.8290   81.4223   12.0776 C.ar    1  UNL1        0.1019
     28 N          62.9240   81.8544   13.5109 N.ar    1  UNL1       -0.2435
     29 C          63.2101   83.2886   13.8445 C.ar    1  UNL1        0.0872
     30 C          63.3052   83.7207   15.2777 C.ar    1  UNL1        0.0561
     31 C          62.5867   86.4034   17.6563 C.3     1  UNL1        0.2525
     32 O          63.6863   85.5870   17.0446 O.3     1  UNL1       -0.4714
@<TRIPOS>BOND
     1    31    32    1
     2    32    21    1
     3    21    22   ar
     4    22    23   ar
     5    23    24   ar
     6    24    25   ar
     7    25    20    1
     8    20    19    1
     9    19     1    1
    10     1     2   ar
    11     2     3   ar
    12     3     4   ar
    13     4     5   ar
    14     5     6   ar
    15     6     7   ar
    16     7    10    1
    17    10    11   ar
    18    11    12   ar
    19    12    13    1
    20    12    14   ar
    21    14    15    1
    22    14    16   ar
    23    16    17    1
    24    16    18   ar
    25     7     8   ar
    26     8     9   ar
    27    25    26   ar
    28    26    27   ar
    29    27    28   ar
    30    28    29   ar
    31    29    30   ar
    32    30    21   ar
    33    29    24   ar
    34     9     1   ar
    35     9     4   ar
    36    18    10   ar
