@<TRIPOS>MOLECULE
*****
 20 21 0 0 0
SMALL
GASTEIGER

@<TRIPOS>ATOM
      1 S          64.1050   85.0582   15.5380 S.O2    1  UNL1        0.0751
      2 O          62.7682   84.8377   16.1815 O.2     1  UNL1       -0.1499
      3 O          65.4418   85.2788   14.8944 O.2     1  UNL1       -0.1499
      4 C          63.9134   86.5419   15.6483 C.ar    1  UNL1        0.1253
      5 C          63.2099   87.1207   16.8400 C.ar    1  UNL1        0.0214
      6 C          63.0183   88.6043   16.9503 C.ar    1  UNL1        0.0155
      7 C          63.5303   89.5091   15.8690 C.ar    1  UNL1        0.0416
      8 N          63.3388   90.9927   15.9794 N.pl3   1  UNL1       -0.3570
      9 C          64.2338   88.9303   14.6774 C.ar    1  UNL1        0.0155
     10 C          64.4254   87.4467   14.5671 C.ar    1  UNL1        0.0214
     11 H          62.8770   91.3726   16.7615 H       1  UNL1        0.1424
     12 H          63.6748   91.5866   15.2697 H       1  UNL1        0.1424
     13 N          64.2966   83.5746   15.4275 N.pl3   1  UNL1       -0.1923
     14 H          64.8451   83.0984   16.0920 H       1  UNL1        0.1758
     15 C          63.2600   81.6180   10.6340 C.3     1  UNL1        0.0614
     16 C          63.1759   81.9173   12.1014 C.ar    1  UNL1        0.1128
     17 N          62.1463   81.3833   13.0526 N.ar    1  UNL1       -0.1440
     18 N          62.4408   81.9392   14.4144 N.ar    1  UNL1       -0.1245
     19 C          63.6524   82.8167   14.3048 C.ar    1  UNL1        0.2006
     20 S          64.1067   82.8032   12.8753 S.2     1  UNL1       -0.0336
@<TRIPOS>BOND
     1    15    16    1
     2    16    17   ar
     3    17    18   ar
     4    18    19   ar
     5    19    13    1
     6    13     1    1
     7     1     2    2
     8     1     3    2
     9     1     4    1
    10     4     5   ar
    11     5     6   ar
    12     6     7   ar
    13     7     8    1
    14     7     9   ar
    15     9    10   ar
    16    19    20   ar
    17    20    16   ar
    18    10     4   ar
    19    13    14    1
    20     8    11    1
    21     8    12    1
@<TRIPOS>MOLECULE
*****
 20 21 0 0 0
SMALL
GASTEIGER

@<TRIPOS>ATOM
      1 S          61.7752   89.2345   11.7702 S.O2    1  UNL1        0.0751
      2 O          60.7391   90.2658   11.4345 O.2     1  UNL1       -0.1499
      3 O          62.8113   88.2031   12.1060 O.2     1  UNL1       -0.1499
      4 C          61.2651   88.3613   10.6623 C.ar    1  UNL1        0.1253
      5 C          60.3412   88.9281    9.6255 C.ar    1  UNL1        0.0214
      6 C          59.8311   88.0549    8.5177 C.ar    1  UNL1        0.0155
      7 C          60.2449   86.6149    8.4467 C.ar    1  UNL1        0.0416
      8 N          59.7348   85.7417    7.3388 N.pl3   1  UNL1       -0.3570
      9 C          61.1689   86.0481    9.4835 C.ar    1  UNL1        0.0155
     10 C          61.6789   86.9212   10.5913 C.ar    1  UNL1        0.0214
     11 H          59.1284   86.1138    6.6583 H       1  UNL1        0.1424
     12 H          60.0064   84.7966    7.2921 H       1  UNL1        0.1424
     13 N          62.2854   90.1076   12.8781 N.pl3   1  UNL1       -0.1923
     14 H          61.8573   90.0790   13.7642 H       1  UNL1        0.1758
     15 C          65.9678   93.0160   10.4570 C.3     1  UNL1        0.0614
     16 C          65.1404   92.3611   11.5231 C.ar    1  UNL1        0.1128
     17 N          65.3325   92.5086   13.0034 N.ar    1  UNL1       -0.1440
     18 N          64.2864   91.6823   13.6911 N.ar    1  UNL1       -0.1245
     19 C          63.4477   91.0242   12.6359 C.ar    1  UNL1        0.2006
     20 S          63.9756   91.4437   11.2960 S.2     1  UNL1       -0.0336
@<TRIPOS>BOND
     1    15    16    1
     2    16    17   ar
     3    17    18   ar
     4    18    19   ar
     5    19    13    1
     6    13     1    1
     7     1     2    2
     8     1     3    2
     9     1     4    1
    10     4     5   ar
    11     5     6   ar
    12     6     7   ar
    13     7     8    1
    14     7     9   ar
    15     9    10   ar
    16    19    20   ar
    17    20    16   ar
    18    10     4   ar
    19    13    14    1
    20     8    11    1
    21     8    12    1
@<TRIPOS>MOLECULE
*****
 20 21 0 0 0
SMALL
GASTEIGER

@<TRIPOS>ATOM
      1 S          62.8912   90.3962   12.7029 S.O2    1  UNL1        0.0751
      2 O          62.6898   89.9786   14.1294 O.2     1  UNL1       -0.1499
      3 O          63.0926   90.8137   11.2764 O.2     1  UNL1       -0.1499
      4 C          64.2163   90.9981   13.0661 C.ar    1  UNL1        0.1253
      5 C          64.8939   90.6038   14.3449 C.ar    1  UNL1        0.0214
      6 C          66.2189   91.2058   14.7081 C.ar    1  UNL1        0.0155
      7 C          66.8663   92.2020   13.7924 C.ar    1  UNL1        0.0416
      8 N          68.1914   92.8039   14.1557 N.pl3   1  UNL1       -0.3570
      9 C          66.1887   92.5963   12.5137 C.ar    1  UNL1        0.0155
     10 C          64.8637   91.9943   12.1505 C.ar    1  UNL1        0.0214
     11 H          68.6362   92.5451   14.9950 H       1  UNL1        0.1424
     12 H          68.6164   93.4578   13.5547 H       1  UNL1        0.1424
     13 N          61.5662   89.7943   12.3396 N.pl3   1  UNL1       -0.1923
     14 H          60.7341   90.1898   12.6867 H       1  UNL1        0.1758
     15 C          60.1454   86.4373    8.5195 C.3     1  UNL1        0.0614
     16 C          60.8558   87.0466    9.6917 C.ar    1  UNL1        0.1128
     17 N          61.9856   86.4253   10.4583 N.ar    1  UNL1       -0.1440
     18 N          62.3892   87.3789   11.5435 N.ar    1  UNL1       -0.1245
     19 C          61.5089   88.5897   11.4477 C.ar    1  UNL1        0.2006
     20 S          60.5612   88.3843   10.3032 S.2     1  UNL1       -0.0336
@<TRIPOS>BOND
     1    15    16    1
     2    16    17   ar
     3    17    18   ar
     4    18    19   ar
     5    19    13    1
     6    13     1    1
     7     1     2    2
     8     1     3    2
     9     1     4    1
    10     4     5   ar
    11     5     6   ar
    12     6     7   ar
    13     7     8    1
    14     7     9   ar
    15     9    10   ar
    16    19    20   ar
    17    20    16   ar
    18    10     4   ar
    19    13    14    1
    20     8    11    1
    21     8    12    1
@<TRIPOS>MOLECULE
*****
 20 21 0 0 0
SMALL
GASTEIGER

@<TRIPOS>ATOM
      1 S          61.7230   89.8449   10.8852 S.O2    1  UNL1        0.0751
      2 O          62.9654   89.9933   10.0579 O.2     1  UNL1       -0.1499
      3 O          60.4806   89.6964   11.7124 O.2     1  UNL1       -0.1499
      4 C          61.2420   88.7595    9.9682 C.ar    1  UNL1        0.1253
      5 C          61.8659   87.3967   10.0271 C.ar    1  UNL1        0.0214
      6 C          61.3850   86.3115    9.1101 C.ar    1  UNL1        0.0155
      7 C          60.2802   86.5890    8.1342 C.ar    1  UNL1        0.0416
      8 N          59.7992   85.5037    7.2172 N.pl3   1  UNL1       -0.3570
      9 C          59.6563   87.9518    8.0753 C.ar    1  UNL1        0.0155
     10 C          60.1372   89.0371    8.9923 C.ar    1  UNL1        0.0214
     11 H          60.2087   84.6092    7.2559 H       1  UNL1        0.1424
     12 H          59.0741   85.6858    6.5767 H       1  UNL1        0.1424
     13 N          62.2038   90.9302   11.8021 N.pl3   1  UNL1       -0.1923
     14 H          61.8026   91.8279   11.7552 H       1  UNL1        0.1758
     15 C          66.5986   91.3784   14.6945 C.3     1  UNL1        0.0614
     16 C          65.3162   90.8536   14.1202 C.ar    1  UNL1        0.1128
     17 N          64.6376   89.5719   14.5035 N.ar    1  UNL1       -0.1440
     18 N          63.3892   89.4446   13.6818 N.ar    1  UNL1       -0.1245
     19 C          63.2961   90.6476   12.7906 C.ar    1  UNL1        0.2006
     20 S          64.4870   91.5184   13.0616 S.2     1  UNL1       -0.0336
@<TRIPOS>BOND
     1    15    16    1
     2    16    17   ar
     3    17    18   ar
     4    18    19   ar
     5    19    13    1
     6    13     1    1
     7     1     2    2
     8     1     3    2
     9     1     4    1
    10     4     5   ar
    11     5     6   ar
    12     6     7   ar
    13     7     8    1
    14     7     9   ar
    15     9    10   ar
    16    19    20   ar
    17    20    16   ar
    18    10     4   ar
    19    13    14    1
    20     8    11    1
    21     8    12    1
@<TRIPOS>MOLECULE
*****
 20 21 0 0 0
SMALL
GASTEIGER

@<TRIPOS>ATOM
      1 S          62.2756   89.7732   11.7565 S.O2    1  UNL1        0.0751
      2 O          61.7135   90.5750   10.6202 O.2     1  UNL1       -0.1499
      3 O          62.8377   88.9715   12.8928 O.2     1  UNL1       -0.1499
      4 C          63.4188   90.7377   11.8715 C.ar    1  UNL1        0.1253
      5 C          64.1400   90.8935   13.1774 C.ar    1  UNL1        0.0214
      6 C          65.2831   91.8579   13.2924 C.ar    1  UNL1        0.0155
      7 C          65.7049   92.6664   12.1014 C.ar    1  UNL1        0.0416
      8 N          66.8481   93.6308   12.2165 N.pl3   1  UNL1       -0.3570
      9 C          64.9837   92.5105   10.7955 C.ar    1  UNL1        0.0155
     10 C          63.8406   91.5462   10.6806 C.ar    1  UNL1        0.0214
     11 H          67.3215   93.7332   13.0736 H       1  UNL1        0.1424
     12 H          67.1250   94.1615   11.4348 H       1  UNL1        0.1424
     13 N          61.1325   88.8088   11.6415 N.pl3   1  UNL1       -0.1923
     14 H          60.4186   88.8086   12.3194 H       1  UNL1        0.1758
     15 C          62.5297   85.2420    8.0074 C.3     1  UNL1        0.0614
     16 C          61.7194   86.2052    8.8233 C.ar    1  UNL1        0.1128
     17 N          60.2647   86.5169    8.6316 N.ar    1  UNL1       -0.1440
     18 N          59.8679   87.5302    9.6640 N.ar    1  UNL1       -0.1245
     19 C          61.0772   87.8447   10.4937 C.ar    1  UNL1        0.2006
     20 S          62.2215   87.0258    9.9742 S.2     1  UNL1       -0.0336
@<TRIPOS>BOND
     1    15    16    1
     2    16    17   ar
     3    17    18   ar
     4    18    19   ar
     5    19    13    1
     6    13     1    1
     7     1     2    2
     8     1     3    2
     9     1     4    1
    10     4     5   ar
    11     5     6   ar
    12     6     7   ar
    13     7     8    1
    14     7     9   ar
    15     9    10   ar
    16    19    20   ar
    17    20    16   ar
    18    10     4   ar
    19    13    14    1
    20     8    11    1
    21     8    12    1
@<TRIPOS>MOLECULE
*****
 20 21 0 0 0
SMALL
GASTEIGER

@<TRIPOS>ATOM
      1 S          63.8418   84.4606   14.8558 S.O2    1  UNL1        0.0751
      2 O          65.3249   84.3578   14.6564 O.2     1  UNL1       -0.1499
      3 O          62.3587   84.5635   15.0552 O.2     1  UNL1       -0.1499
      4 C          63.6224   83.5145   13.7126 C.ar    1  UNL1        0.1253
      5 C          64.4207   83.6641   12.4516 C.ar    1  UNL1        0.0214
      6 C          64.2013   82.7180   11.3085 C.ar    1  UNL1        0.0155
      7 C          63.1836   81.6224   11.4264 C.ar    1  UNL1        0.0416
      8 N          62.9642   80.6763   10.2832 N.pl3   1  UNL1       -0.3570
      9 C          62.3853   81.4728   12.6875 C.ar    1  UNL1        0.0155
     10 C          62.6047   82.4189   13.8306 C.ar    1  UNL1        0.0214
     11 H          63.4882   80.7744    9.4555 H       1  UNL1        0.1424
     12 H          62.2963   79.9572   10.3606 H       1  UNL1        0.1424
     13 N          64.0611   85.4067   15.9990 N.pl3   1  UNL1       -0.1923
     14 H          64.3509   85.0621   16.8745 H       1  UNL1        0.1758
     15 C          64.2078   90.2892   13.9939 C.3     1  UNL1        0.0614
     16 C          63.9063   89.1221   14.8866 C.ar    1  UNL1        0.1128
     17 N          63.0875   89.1613   16.1428 N.ar    1  UNL1       -0.1440
     18 N          63.0459   87.7743   16.7124 N.ar    1  UNL1       -0.1245
     19 C          63.8389   86.8778   15.8082 C.ar    1  UNL1        0.2006
     20 S          64.3706   87.7109   14.6798 S.2     1  UNL1       -0.0336
@<TRIPOS>BOND
     1    15    16    1
     2    16    17   ar
     3    17    18   ar
     4    18    19   ar
     5    19    13    1
     6    13     1    1
     7     1     2    2
     8     1     3    2
     9     1     4    1
    10     4     5   ar
    11     5     6   ar
    12     6     7   ar
    13     7     8    1
    14     7     9   ar
    15     9    10   ar
    16    19    20   ar
    17    20    16   ar
    18    10     4   ar
    19    13    14    1
    20     8    11    1
    21     8    12    1
@<TRIPOS>MOLECULE
*****
 20 21 0 0 0
SMALL
GASTEIGER

@<TRIPOS>ATOM
      1 S          61.0910   88.1104   10.6293 S.O2    1  UNL1        0.0751
      2 O          60.7565   89.2239    9.6817 O.2     1  UNL1       -0.1499
      3 O          61.4255   86.9968   11.5770 O.2     1  UNL1       -0.1499
      4 C          61.1451   87.1482    9.4798 C.ar    1  UNL1        0.1253
      5 C          62.4169   86.4134    9.1760 C.ar    1  UNL1        0.0214
      6 C          62.4709   85.4513    8.0264 C.ar    1  UNL1        0.0155
      7 C          61.2531   85.2241    7.1807 C.ar    1  UNL1        0.0416
      8 N          61.3072   84.2620    6.0311 N.pl3   1  UNL1       -0.3570
      9 C          59.9813   85.9590    7.4845 C.ar    1  UNL1        0.0155
     10 C          59.9273   86.9210    8.6340 C.ar    1  UNL1        0.0214
     11 H          62.1419   83.7797    5.8317 H       1  UNL1        0.1424
     12 H          60.5079   84.1129    5.4760 H       1  UNL1        0.1424
     13 N          61.0370   89.0724   11.7789 N.pl3   1  UNL1       -0.1923
     14 H          60.1754   89.2781   12.2086 H       1  UNL1        0.1758
     15 C          65.2182   92.2733   12.1700 C.3     1  UNL1        0.0614
     16 C          64.2176   91.1924   12.4536 C.ar    1  UNL1        0.1128
     17 N          64.2475   90.2464   13.6173 N.ar    1  UNL1       -0.1440
     18 N          63.0598   89.3371   13.5062 N.ar    1  UNL1       -0.1245
     19 C          62.2956   89.7211   12.2738 C.ar    1  UNL1        0.2006
     20 S          63.0112   90.8678   11.6233 S.2     1  UNL1       -0.0336
@<TRIPOS>BOND
     1    15    16    1
     2    16    17   ar
     3    17    18   ar
     4    18    19   ar
     5    19    13    1
     6    13     1    1
     7     1     2    2
     8     1     3    2
     9     1     4    1
    10     4     5   ar
    11     5     6   ar
    12     6     7   ar
    13     7     8    1
    14     7     9   ar
    15     9    10   ar
    16    19    20   ar
    17    20    16   ar
    18    10     4   ar
    19    13    14    1
    20     8    11    1
    21     8    12    1
@<TRIPOS>MOLECULE
*****
 20 21 0 0 0
SMALL
GASTEIGER

@<TRIPOS>ATOM
      1 S          62.7625   85.1402   11.1022 S.O2    1  UNL1        0.0751
      2 O          62.1194   85.8055   12.2828 O.2     1  UNL1       -0.1499
      3 O          63.4057   84.4750    9.9216 O.2     1  UNL1       -0.1499
      4 C          61.7994   85.8352   10.1859 C.ar    1  UNL1        0.1253
      5 C          60.8839   86.8946   10.7238 C.ar    1  UNL1        0.0214
      6 C          59.9209   87.5895    9.8075 C.ar    1  UNL1        0.0155
      7 C          59.8734   87.2250    8.3532 C.ar    1  UNL1        0.0416
      8 N          58.9104   87.9199    7.4369 N.pl3   1  UNL1       -0.3570
      9 C          60.7890   86.1656    7.8153 C.ar    1  UNL1        0.0155
     10 C          61.7520   85.4707    8.7316 C.ar    1  UNL1        0.0214
     11 H          58.3094   88.6153    7.7900 H       1  UNL1        0.1424
     12 H          58.8792   87.6807    6.4824 H       1  UNL1        0.1424
     13 N          63.7256   84.4453   12.0184 N.pl3   1  UNL1       -0.1923
     14 H          64.6591   84.7525   12.0760 H       1  UNL1        0.1758
     15 C          62.0072   79.6587   13.4386 C.3     1  UNL1        0.0614
     16 C          62.4764   81.0821   13.4997 C.ar    1  UNL1        0.1128
     17 N          62.6425   81.9030   14.7441 N.ar    1  UNL1       -0.1440
     18 N          63.1306   83.2628   14.3407 N.ar    1  UNL1       -0.1245
     19 C          63.2663   83.2823   12.8470 C.ar    1  UNL1        0.2006
     20 S          62.8619   81.9346   12.3272 S.2     1  UNL1       -0.0336
@<TRIPOS>BOND
     1    15    16    1
     2    16    17   ar
     3    17    18   ar
     4    18    19   ar
     5    19    13    1
     6    13     1    1
     7     1     2    2
     8     1     3    2
     9     1     4    1
    10     4     5   ar
    11     5     6   ar
    12     6     7   ar
    13     7     8    1
    14     7     9   ar
    15     9    10   ar
    16    19    20   ar
    17    20    16   ar
    18    10     4   ar
    19    13    14    1
    20     8    11    1
    21     8    12    1
@<TRIPOS>MOLECULE
*****
 20 21 0 0 0
SMALL
GASTEIGER

@<TRIPOS>ATOM
      1 S          62.8597   88.1815   12.1023 S.O2    1  UNL1        0.0751
      2 O          63.0743   89.6549   11.9207 O.2     1  UNL1       -0.1499
      3 O          62.6452   86.7081   12.2838 O.2     1  UNL1       -0.1499
      4 C          61.9028   88.1784   10.9471 C.ar    1  UNL1        0.1253
      5 C          61.3956   86.8785   10.3968 C.ar    1  UNL1        0.0214
      6 C          60.4387   86.8754    9.2417 C.ar    1  UNL1        0.0155
      7 C          59.9891   88.1723    8.6368 C.ar    1  UNL1        0.0416
      8 N          59.0322   88.1693    7.4816 N.pl3   1  UNL1       -0.3570
      9 C          60.4963   89.4723    9.1871 C.ar    1  UNL1        0.0155
     10 C          61.4532   89.4753   10.3422 C.ar    1  UNL1        0.0214
     11 H          58.6993   87.3161    7.1205 H       1  UNL1        0.1424
     12 H          58.7371   89.0205    7.0846 H       1  UNL1        0.1424
     13 N          63.8166   88.1845   13.2574 N.pl3   1  UNL1       -0.1923
     14 H          64.3753   87.3938   13.4358 H       1  UNL1        0.1758
     15 C          65.7125   92.4472   15.7304 C.3     1  UNL1        0.0614
     16 C          64.7935   91.3516   15.2775 C.ar    1  UNL1        0.1128
     17 N          63.3754   91.1499   15.7227 N.ar    1  UNL1       -0.1440
     18 N          62.8368   89.9389   15.0201 N.ar    1  UNL1       -0.1245
     19 C          63.9221   89.3922   14.1407 C.ar    1  UNL1        0.2006
     20 S          65.1314   90.2653   14.2998 S.2     1  UNL1       -0.0336
@<TRIPOS>BOND
     1    15    16    1
     2    16    17   ar
     3    17    18   ar
     4    18    19   ar
     5    19    13    1
     6    13     1    1
     7     1     2    2
     8     1     3    2
     9     1     4    1
    10     4     5   ar
    11     5     6   ar
    12     6     7   ar
    13     7     8    1
    14     7     9   ar
    15     9    10   ar
    16    19    20   ar
    17    20    16   ar
    18    10     4   ar
    19    13    14    1
    20     8    11    1
    21     8    12    1
