@<TRIPOS>MOLECULE
*****
 32 35 0 0 0
SMALL
GASTEIGER

@<TRIPOS>ATOM
      1 C          61.9662   87.5410   10.8626 C.ar    1  UNL1        0.1743
      2 N          62.7712   88.2154   11.9337 N.ar    1  UNL1       -0.2173
      3 C          62.5580   89.6707   12.2278 C.ar    1  UNL1        0.1834
      4 N          61.5398   90.4517   11.4509 N.ar    1  UNL1       -0.1885
      5 C          60.7349   89.7773   10.3798 C.ar    1  UNL1        0.2596
      6 O          59.7168   90.5581    9.6029 O.3     1  UNL1       -0.4898
      7 C          60.9481   88.3219   10.0857 C.ar    1  UNL1        0.2098
      8 O          60.1432   87.6474    9.0146 O.3     1  UNL1       -0.5007
      9 H          59.5836   91.4672    9.7866 H       1  UNL1        0.2938
     10 H          59.5072   88.1352    8.5293 H       1  UNL1        0.2924
     11 C          63.3629   90.3452   13.2989 C.ar    1  UNL1        0.1170
     12 N          63.1315   90.0004   14.7402 N.ar    1  UNL1       -0.2407
     13 C          63.9365   90.6748   15.8113 C.ar    1  UNL1        0.0989
     14 C          64.9728   91.6941   15.4411 C.ar    1  UNL1        0.0207
     15 C          65.2042   92.0389   13.9996 C.ar    1  UNL1        0.0031
     16 C          66.2405   93.0582   13.6294 C.ar    1  UNL1        0.0001
     17 C          66.4719   93.4030   12.1880 C.ar    1  UNL1        0.0000
     18 C          65.6670   92.7285   11.1170 C.ar    1  UNL1        0.0000
     19 C          64.6307   91.7093   11.4872 C.ar    1  UNL1        0.0016
     20 C          64.3993   91.3645   12.9286 C.ar    1  UNL1        0.0207
     21 N          63.1292   85.2823   11.4067 N.am    1  UNL1       -0.3012
     22 C          62.1794   86.0856   10.5684 C.2     1  UNL1        0.2668
     23 O          61.4429   85.4335    9.4361 O.2     1  UNL1       -0.2684
     24 H          63.6126   85.7103   12.1499 H       1  UNL1        0.1497
     25 C          63.9881   83.4088    9.8249 C.3     1  UNL1        0.0213
     26 C          63.3425   83.8270   11.1126 C.3     1  UNL1        0.0719
     27 C          62.9100   82.7899   12.1062 C.3     1  UNL1        0.0180
     28 C          62.9287   81.3377   11.7309 C.3     1  UNL1        0.0016
     29 C          62.4963   80.3006   12.7245 C.3     1  UNL1        0.0001
     30 C          62.0452   80.7156   14.0935 C.3     1  UNL1        0.0000
     31 C          62.0265   82.1677   14.4690 C.3     1  UNL1        0.0001
     32 C          62.4589   83.2049   13.4753 C.3     1  UNL1        0.0016
@<TRIPOS>BOND
     1    26    25    1
     2    26    21    1
     3    21    22   am
     4    22    23    2
     5    22     1    1
     6     1     2   ar
     7     2     3   ar
     8     3    11    1
     9    11    12   ar
    10    12    13   ar
    11    13    14   ar
    12    14    15   ar
    13    15    16   ar
    14    16    17   ar
    15    17    18   ar
    16    18    19   ar
    17    19    20   ar
    18     3     4   ar
    19     4     5   ar
    20     5     6    1
    21     5     7   ar
    22     7     8    1
    23    26    27    1
    24    27    28    1
    25    28    29    1
    26    29    30    1
    27    30    31    1
    28    31    32    1
    29     7     1   ar
    30    32    27    1
    31    20    11   ar
    32    20    15   ar
    33    21    24    1
    34     6     9    1
    35     8    10    1
@<TRIPOS>MOLECULE
*****
 32 35 0 0 0
SMALL
GASTEIGER

@<TRIPOS>ATOM
      1 C          63.7842   88.4484   15.2622 C.ar    1  UNL1        0.1743
      2 N          63.9182   87.5145   14.0961 N.ar    1  UNL1       -0.2173
      3 C          63.5237   86.0744   14.2394 C.ar    1  UNL1        0.1834
      4 N          62.9951   85.5682   15.5487 N.ar    1  UNL1       -0.1885
      5 C          62.8610   86.5021   16.7148 C.ar    1  UNL1        0.2596
      6 O          62.3325   85.9960   18.0242 O.3     1  UNL1       -0.4898
      7 C          63.2556   87.9423   16.5716 C.ar    1  UNL1        0.2098
      8 O          63.1215   88.8762   17.7377 O.3     1  UNL1       -0.5007
      9 H          62.0860   85.0964   18.1137 H       1  UNL1        0.2938
     10 H          62.7913   88.5600   18.5556 H       1  UNL1        0.2924
     11 C          63.6578   85.1405   13.0733 C.ar    1  UNL1        0.1170
     12 N          64.3320   83.8123   13.2498 N.ar    1  UNL1       -0.2407
     13 C          64.4661   82.8783   12.0837 C.ar    1  UNL1        0.0989
     14 C          63.9260   83.2726   10.7410 C.ar    1  UNL1        0.0207
     15 C          63.2517   84.6009   10.5644 C.ar    1  UNL1        0.0031
     16 C          62.7116   84.9952    9.2218 C.ar    1  UNL1        0.0001
     17 C          62.0374   86.3235    9.0453 C.ar    1  UNL1        0.0000
     18 C          61.9033   87.2574   10.2114 C.ar    1  UNL1        0.0000
     19 C          62.4434   86.8631   11.5540 C.ar    1  UNL1        0.0016
     20 C          63.1176   85.5349   11.7305 C.ar    1  UNL1        0.0207
     21 N          65.5367   90.2452   14.5910 N.am    1  UNL1       -0.3012
     22 C          64.1787   89.8885   15.1190 C.2     1  UNL1        0.2668
     23 O          63.2153   90.9719   15.5036 O.2     1  UNL1       -0.2684
     24 H          66.1690   89.5340   14.3385 H       1  UNL1        0.1497
     25 C          66.4841   92.4321   15.6252 C.3     1  UNL1        0.0213
     26 C          65.9312   91.6852   14.4477 C.3     1  UNL1        0.0719
     27 C          65.7729   92.3783   13.1269 C.3     1  UNL1        0.0180
     28 C          64.9528   91.7461   12.0416 C.3     1  UNL1        0.0016
     29 C          64.7945   92.4392   10.7209 C.3     1  UNL1        0.0001
     30 C          65.4564   93.7645   10.4853 C.3     1  UNL1        0.0000
     31 C          66.2764   94.3967   11.5705 C.3     1  UNL1        0.0001
     32 C          66.4347   93.7036   12.8914 C.3     1  UNL1        0.0016
@<TRIPOS>BOND
     1    26    25    1
     2    26    21    1
     3    21    22   am
     4    22    23    2
     5    22     1    1
     6     1     2   ar
     7     2     3   ar
     8     3    11    1
     9    11    12   ar
    10    12    13   ar
    11    13    14   ar
    12    14    15   ar
    13    15    16   ar
    14    16    17   ar
    15    17    18   ar
    16    18    19   ar
    17    19    20   ar
    18     3     4   ar
    19     4     5   ar
    20     5     6    1
    21     5     7   ar
    22     7     8    1
    23    26    27    1
    24    27    28    1
    25    28    29    1
    26    29    30    1
    27    30    31    1
    28    31    32    1
    29     7     1   ar
    30    32    27    1
    31    20    11   ar
    32    20    15   ar
    33    21    24    1
    34     6     9    1
    35     8    10    1
@<TRIPOS>MOLECULE
*****
 32 35 0 0 0
SMALL
GASTEIGER

@<TRIPOS>ATOM
      1 C          61.6663   88.1075   11.0183 C.ar    1  UNL1        0.1743
      2 N          62.8692   88.9921   11.1614 N.ar    1  UNL1       -0.2173
      3 C          62.6956   90.4510   11.4636 C.ar    1  UNL1        0.1834
      4 N          61.3190   91.0254   11.6227 N.ar    1  UNL1       -0.1885
      5 C          60.1161   90.1408   11.4796 C.ar    1  UNL1        0.2596
      6 O          58.7396   90.7151   11.6387 O.3     1  UNL1       -0.4898
      7 C          60.2898   88.6818   11.1774 C.ar    1  UNL1        0.2098
      8 O          59.0869   87.7972   11.0343 O.3     1  UNL1       -0.5007
      9 H          58.6311   91.6264   11.8274 H       1  UNL1        0.2938
     10 H          58.2270   88.1559   11.1337 H       1  UNL1        0.2924
     11 C          63.8985   91.3357   11.6067 C.ar    1  UNL1        0.1170
     12 N          64.4966   91.9898   10.3966 N.ar    1  UNL1       -0.2407
     13 C          65.6995   92.8744   10.5397 C.ar    1  UNL1        0.0989
     14 C          66.3043   93.1049   11.8929 C.ar    1  UNL1        0.0207
     15 C          65.7061   92.4508   13.1031 C.ar    1  UNL1        0.0031
     16 C          66.3109   92.6813   14.4562 C.ar    1  UNL1        0.0001
     17 C          65.7127   92.0271   15.6663 C.ar    1  UNL1        0.0000
     18 C          64.5098   91.1425   15.5232 C.ar    1  UNL1        0.0000
     19 C          63.9051   90.9120   14.1700 C.ar    1  UNL1        0.0016
     20 C          64.5032   91.5661   12.9600 C.ar    1  UNL1        0.0207
     21 N          62.9040   85.8586   11.4187 N.am    1  UNL1       -0.3012
     22 C          61.8399   86.6485   10.7161 C.2     1  UNL1        0.2668
     23 O          60.9495   85.9795    9.7113 O.2     1  UNL1       -0.2684
     24 H          63.4884   86.2976   12.0782 H       1  UNL1        0.1497
     25 C          63.5562   83.9659    9.7628 C.3     1  UNL1        0.0213
     26 C          63.0777   84.3996   11.1166 C.3     1  UNL1        0.0719
     27 C          62.7729   83.3745   12.1683 C.3     1  UNL1        0.0180
     28 C          62.6875   81.9232   11.7986 C.3     1  UNL1        0.0016
     29 C          62.3828   80.8981   12.8503 C.3     1  UNL1        0.0001
     30 C          62.1634   81.3241   14.2717 C.3     1  UNL1        0.0000
     31 C          62.2487   82.7753   14.6414 C.3     1  UNL1        0.0001
     32 C          62.5535   83.8005   13.5897 C.3     1  UNL1        0.0016
@<TRIPOS>BOND
     1    26    25    1
     2    26    21    1
     3    21    22   am
     4    22    23    2
     5    22     1    1
     6     1     2   ar
     7     2     3   ar
     8     3    11    1
     9    11    12   ar
    10    12    13   ar
    11    13    14   ar
    12    14    15   ar
    13    15    16   ar
    14    16    17   ar
    15    17    18   ar
    16    18    19   ar
    17    19    20   ar
    18     3     4   ar
    19     4     5   ar
    20     5     6    1
    21     5     7   ar
    22     7     8    1
    23    26    27    1
    24    27    28    1
    25    28    29    1
    26    29    30    1
    27    30    31    1
    28    31    32    1
    29     7     1   ar
    30    32    27    1
    31    20    11   ar
    32    20    15   ar
    33    21    24    1
    34     6     9    1
    35     8    10    1
@<TRIPOS>MOLECULE
*****
 32 35 0 0 0
SMALL
GASTEIGER

@<TRIPOS>ATOM
      1 C          63.7528   88.1441   15.2087 C.ar    1  UNL1        0.1743
      2 N          63.9088   87.1187   14.1250 N.ar    1  UNL1       -0.2173
      3 C          63.5293   85.6907   14.3834 C.ar    1  UNL1        0.1834
      4 N          62.9938   85.2880   15.7255 N.ar    1  UNL1       -0.1885
      5 C          62.8378   86.3134   16.8091 C.ar    1  UNL1        0.2596
      6 O          62.3023   85.9107   18.1512 O.3     1  UNL1       -0.4898
      7 C          63.2173   87.7414   16.5507 C.ar    1  UNL1        0.2098
      8 O          63.0613   88.7668   17.6344 O.3     1  UNL1       -0.5007
      9 H          62.0653   85.0187   18.3126 H       1  UNL1        0.2938
     10 H          62.7268   88.5152   18.4727 H       1  UNL1        0.2924
     11 C          63.6853   84.6654   13.2997 C.ar    1  UNL1        0.1170
     12 N          64.2868   83.3277   13.6138 N.ar    1  UNL1       -0.2407
     13 C          64.4428   82.3024   12.5302 C.ar    1  UNL1        0.0989
     14 C          63.9973   82.6147   11.1324 C.ar    1  UNL1        0.0207
     15 C          63.3957   83.9525   10.8182 C.ar    1  UNL1        0.0031
     16 C          62.9502   84.2648    9.4203 C.ar    1  UNL1        0.0001
     17 C          62.3487   85.6025    9.1062 C.ar    1  UNL1        0.0000
     18 C          62.1927   86.6278   10.1899 C.ar    1  UNL1        0.0000
     19 C          62.6382   86.3155   11.5877 C.ar    1  UNL1        0.0016
     20 C          63.2398   84.9778   11.9018 C.ar    1  UNL1        0.0207
     21 N          65.0655   89.9083   13.8250 N.am    1  UNL1       -0.3012
     22 C          64.1323   89.5721   14.9502 C.2     1  UNL1        0.2668
     23 O          63.5787   90.6639   15.8171 O.2     1  UNL1       -0.2684
     24 H          65.4288   89.1917   13.2561 H       1  UNL1        0.1497
     25 C          64.6607   92.1547   12.5842 C.3     1  UNL1        0.0213
     26 C          65.4450   91.3362   13.5665 C.3     1  UNL1        0.0719
     27 C          66.6088   91.9457   14.2904 C.3     1  UNL1        0.0180
     28 C          66.4000   92.6157   15.6162 C.3     1  UNL1        0.0016
     29 C          67.5638   93.2252   16.3401 C.3     1  UNL1        0.0001
     30 C          68.9364   93.1647   15.7383 C.3     1  UNL1        0.0000
     31 C          69.1453   92.4947   14.4126 C.3     1  UNL1        0.0001
     32 C          67.9815   91.8852   13.6886 C.3     1  UNL1        0.0016
@<TRIPOS>BOND
     1    26    25    1
     2    26    21    1
     3    21    22   am
     4    22    23    2
     5    22     1    1
     6     1     2   ar
     7     2     3   ar
     8     3    11    1
     9    11    12   ar
    10    12    13   ar
    11    13    14   ar
    12    14    15   ar
    13    15    16   ar
    14    16    17   ar
    15    17    18   ar
    16    18    19   ar
    17    19    20   ar
    18     3     4   ar
    19     4     5   ar
    20     5     6    1
    21     5     7   ar
    22     7     8    1
    23    26    27    1
    24    27    28    1
    25    28    29    1
    26    29    30    1
    27    30    31    1
    28    31    32    1
    29     7     1   ar
    30    32    27    1
    31    20    11   ar
    32    20    15   ar
    33    21    24    1
    34     6     9    1
    35     8    10    1
@<TRIPOS>MOLECULE
*****
 32 35 0 0 0
SMALL
GASTEIGER

@<TRIPOS>ATOM
      1 C          63.8751   86.2581   14.8121 C.ar    1  UNL1        0.1743
      2 N          64.3075   87.5203   14.1266 N.ar    1  UNL1       -0.2173
      3 C          64.1650   88.8399   14.8253 C.ar    1  UNL1        0.1834
      4 N          63.5901   88.8974   16.2096 N.ar    1  UNL1       -0.1885
      5 C          63.1577   87.6352   16.8951 C.ar    1  UNL1        0.2596
      6 O          62.5828   87.6927   18.2793 O.3     1  UNL1       -0.4898
      7 C          63.3002   86.3156   16.1963 C.ar    1  UNL1        0.2098
      8 O          62.8677   85.0534   16.8818 O.3     1  UNL1       -0.5007
      9 H          62.4937   88.5170   18.7158 H       1  UNL1        0.2938
     10 H          62.5086   85.0893   17.7465 H       1  UNL1        0.2924
     11 C          64.5975   90.1021   14.1398 C.ar    1  UNL1        0.1170
     12 N          65.5569   91.0337   14.8192 N.ar    1  UNL1       -0.2407
     13 C          65.9893   92.2959   14.1337 C.ar    1  UNL1        0.0989
     14 C          65.4623   92.6265   12.7688 C.ar    1  UNL1        0.0207
     15 C          64.5028   91.6949   12.0894 C.ar    1  UNL1        0.0031
     16 C          63.9758   92.0255   10.7245 C.ar    1  UNL1        0.0001
     17 C          63.0164   91.0939   10.0451 C.ar    1  UNL1        0.0000
     18 C          62.5840   89.8317   10.7306 C.ar    1  UNL1        0.0000
     19 C          63.1110   89.5011   12.0955 C.ar    1  UNL1        0.0016
     20 C          64.0704   90.4327   12.7749 C.ar    1  UNL1        0.0207
     21 N          63.4287   84.7458   12.7472 N.am    1  UNL1       -0.3012
     22 C          64.0176   84.9385   14.1133 C.2     1  UNL1        0.2668
     23 O          64.7490   83.8116   14.7805 O.2     1  UNL1       -0.2684
     24 H          62.9486   85.4854   12.3093 H       1  UNL1        0.1497
     25 C          64.3949   83.3242   10.7990 C.3     1  UNL1        0.0213
     26 C          63.5711   83.4262   12.0484 C.3     1  UNL1        0.0719
     27 C          62.8899   82.2086   12.5990 C.3     1  UNL1        0.0180
     28 C          63.1965   80.8553   12.0291 C.3     1  UNL1        0.0016
     29 C          62.5152   79.6377   12.5797 C.3     1  UNL1        0.0001
     30 C          61.5274   79.7732   13.7003 C.3     1  UNL1        0.0000
     31 C          61.2208   81.1264   14.2703 C.3     1  UNL1        0.0001
     32 C          61.9020   82.3441   13.7197 C.3     1  UNL1        0.0016
@<TRIPOS>BOND
     1    26    25    1
     2    26    21    1
     3    21    22   am
     4    22    23    2
     5    22     1    1
     6     1     2   ar
     7     2     3   ar
     8     3    11    1
     9    11    12   ar
    10    12    13   ar
    11    13    14   ar
    12    14    15   ar
    13    15    16   ar
    14    16    17   ar
    15    17    18   ar
    16    18    19   ar
    17    19    20   ar
    18     3     4   ar
    19     4     5   ar
    20     5     6    1
    21     5     7   ar
    22     7     8    1
    23    26    27    1
    24    27    28    1
    25    28    29    1
    26    29    30    1
    27    30    31    1
    28    31    32    1
    29     7     1   ar
    30    32    27    1
    31    20    11   ar
    32    20    15   ar
    33    21    24    1
    34     6     9    1
    35     8    10    1
@<TRIPOS>MOLECULE
*****
 32 35 0 0 0
SMALL
GASTEIGER

@<TRIPOS>ATOM
      1 C          62.2568   88.1881   11.5562 C.ar    1  UNL1        0.1743
      2 N          63.3544   89.1762   11.8186 N.ar    1  UNL1       -0.2173
      3 C          63.2394   90.5797   11.3020 C.ar    1  UNL1        0.1834
      4 N          62.0267   90.9952   10.5230 N.ar    1  UNL1       -0.1885
      5 C          60.9290   90.0071   10.2606 C.ar    1  UNL1        0.2596
      6 O          59.7164   90.4225    9.4817 O.3     1  UNL1       -0.4898
      7 C          61.0441   88.6035   10.7773 C.ar    1  UNL1        0.2098
      8 O          59.9464   87.6155   10.5149 O.3     1  UNL1       -0.5007
      9 H          59.6445   91.2992    9.1589 H       1  UNL1        0.2938
     10 H          59.1889   87.8750   10.0283 H       1  UNL1        0.2924
     11 C          64.3371   91.5678   11.5643 C.ar    1  UNL1        0.1170
     12 N          64.9570   92.3204   10.4245 N.ar    1  UNL1       -0.2407
     13 C          66.0546   93.3085   10.6868 C.ar    1  UNL1        0.0989
     14 C          66.5324   93.5440   12.0891 C.ar    1  UNL1        0.0207
     15 C          65.9125   92.7914   13.2290 C.ar    1  UNL1        0.0031
     16 C          66.3903   93.0269   14.6312 C.ar    1  UNL1        0.0001
     17 C          65.7704   92.2743   15.7711 C.ar    1  UNL1        0.0000
     18 C          64.6727   91.2862   15.5087 C.ar    1  UNL1        0.0000
     19 C          64.1950   91.0507   14.1065 C.ar    1  UNL1        0.0016
     20 C          64.8148   91.8033   12.9666 C.ar    1  UNL1        0.0207
     21 N          63.5114   86.4076   12.9725 N.am    1  UNL1       -0.3012
     22 C          62.3718   86.7846   12.0729 C.2     1  UNL1        0.2668
     23 O          61.3474   85.7580   11.6898 O.2     1  UNL1       -0.2684
     24 H          64.1837   87.0814   13.2239 H       1  UNL1        0.1497
     25 C          63.8216   84.7585   14.9560 C.3     1  UNL1        0.0213
     26 C          63.6265   85.0041   13.4892 C.3     1  UNL1        0.0719
     27 C          63.5464   83.8463   12.5390 C.3     1  UNL1        0.0180
     28 C          62.7142   82.6474   12.8859 C.3     1  UNL1        0.0016
     29 C          62.6342   81.4896   11.9357 C.3     1  UNL1        0.0001
     30 C          63.3863   81.5305   10.6386 C.3     1  UNL1        0.0000
     31 C          64.2185   82.7292   10.2916 C.3     1  UNL1        0.0001
     32 C          64.2985   83.8872   11.2418 C.3     1  UNL1        0.0016
@<TRIPOS>BOND
     1    26    25    1
     2    26    21    1
     3    21    22   am
     4    22    23    2
     5    22     1    1
     6     1     2   ar
     7     2     3   ar
     8     3    11    1
     9    11    12   ar
    10    12    13   ar
    11    13    14   ar
    12    14    15   ar
    13    15    16   ar
    14    16    17   ar
    15    17    18   ar
    16    18    19   ar
    17    19    20   ar
    18     3     4   ar
    19     4     5   ar
    20     5     6    1
    21     5     7   ar
    22     7     8    1
    23    26    27    1
    24    27    28    1
    25    28    29    1
    26    29    30    1
    27    30    31    1
    28    31    32    1
    29     7     1   ar
    30    32    27    1
    31    20    11   ar
    32    20    15   ar
    33    21    24    1
    34     6     9    1
    35     8    10    1
@<TRIPOS>MOLECULE
*****
 32 35 0 0 0
SMALL
GASTEIGER

@<TRIPOS>ATOM
      1 C          63.2957   89.5500   12.2342 C.ar    1  UNL1        0.1743
      2 N          63.5648   88.2200   12.8734 N.ar    1  UNL1       -0.2173
      3 C          62.8523   86.9944   12.3832 C.ar    1  UNL1        0.1834
      4 N          61.8707   87.0989   11.2537 N.ar    1  UNL1       -0.1885
      5 C          61.6016   88.4289   10.6145 C.ar    1  UNL1        0.2596
      6 O          60.6201   88.5334    9.4851 O.3     1  UNL1       -0.4898
      7 C          62.3142   89.6545   11.1048 C.ar    1  UNL1        0.2098
      8 O          62.0451   90.9846   10.4656 O.3     1  UNL1       -0.5007
      9 H          60.1750   87.7679    9.1789 H       1  UNL1        0.2938
     10 H          61.4319   91.0498    9.7600 H       1  UNL1        0.2924
     11 C          63.1213   85.6644   13.0224 C.ar    1  UNL1        0.1170
     12 N          63.1240   85.5374   14.5170 N.ar    1  UNL1       -0.2407
     13 C          63.3931   84.2073   15.1562 C.ar    1  UNL1        0.0989
     14 C          63.6595   83.0043   14.3008 C.ar    1  UNL1        0.0207
     15 C          63.6568   83.1313   12.8062 C.ar    1  UNL1        0.0031
     16 C          63.9232   81.9283   11.9508 C.ar    1  UNL1        0.0001
     17 C          63.9206   82.0553   10.4562 C.ar    1  UNL1        0.0000
     18 C          63.6515   83.3853    9.8170 C.ar    1  UNL1        0.0000
     19 C          63.3851   84.5883   10.6724 C.ar    1  UNL1        0.0016
     20 C          63.3878   84.4613   12.1669 C.ar    1  UNL1        0.0207
     21 N          65.0992   91.3898   11.8982 N.am    1  UNL1       -0.3012
     22 C          64.0082   90.7756   12.7244 C.2     1  UNL1        0.2668
     23 O          63.6298   91.3870   14.0408 O.2     1  UNL1       -0.2684
     24 H          65.3476   90.9885   11.0342 H       1  UNL1        0.1497
     25 C          65.6506   93.9176   11.6618 C.3     1  UNL1        0.0213
     26 C          65.8117   92.6153   12.3884 C.3     1  UNL1        0.0719
     27 C          66.6854   92.5385   13.6053 C.3     1  UNL1        0.0180
     28 C          66.1563   92.9804   14.9375 C.3     1  UNL1        0.0016
     29 C          67.0300   92.9036   16.1544 C.3     1  UNL1        0.0001
     30 C          68.4327   92.3850   16.0390 C.3     1  UNL1        0.0000
     31 C          68.9618   91.9431   14.7069 C.3     1  UNL1        0.0001
     32 C          68.0881   92.0199   13.4899 C.3     1  UNL1        0.0016
@<TRIPOS>BOND
     1    26    25    1
     2    26    21    1
     3    21    22   am
     4    22    23    2
     5    22     1    1
     6     1     2   ar
     7     2     3   ar
     8     3    11    1
     9    11    12   ar
    10    12    13   ar
    11    13    14   ar
    12    14    15   ar
    13    15    16   ar
    14    16    17   ar
    15    17    18   ar
    16    18    19   ar
    17    19    20   ar
    18     3     4   ar
    19     4     5   ar
    20     5     6    1
    21     5     7   ar
    22     7     8    1
    23    26    27    1
    24    27    28    1
    25    28    29    1
    26    29    30    1
    27    30    31    1
    28    31    32    1
    29     7     1   ar
    30    32    27    1
    31    20    11   ar
    32    20    15   ar
    33    21    24    1
    34     6     9    1
    35     8    10    1
@<TRIPOS>MOLECULE
*****
 32 35 0 0 0
SMALL
GASTEIGER

@<TRIPOS>ATOM
      1 C          63.2739   89.1065   12.4314 C.ar    1  UNL1        0.1743
      2 N          63.4339   87.7064   12.9452 N.ar    1  UNL1       -0.2173
      3 C          62.4726   86.6367   12.5191 C.ar    1  UNL1        0.1834
      4 N          61.3513   86.9670   11.5791 N.ar    1  UNL1       -0.1885
      5 C          61.1913   88.3672   11.0653 C.ar    1  UNL1        0.2596
      6 O          60.0700   88.6976   10.1254 O.3     1  UNL1       -0.4898
      7 C          62.1526   89.4369   11.4914 C.ar    1  UNL1        0.2098
      8 O          61.9926   90.8371   10.9776 O.3     1  UNL1       -0.5007
      9 H          59.4695   88.0294    9.8592 H       1  UNL1        0.2938
     10 H          61.2922   91.0434   10.3905 H       1  UNL1        0.2924
     11 C          62.6326   85.2365   13.0329 C.ar    1  UNL1        0.1170
     12 N          62.3577   84.9310   14.4755 N.ar    1  UNL1       -0.2407
     13 C          62.5177   83.5309   14.9893 C.ar    1  UNL1        0.0989
     14 C          62.9527   82.4363   14.0606 C.ar    1  UNL1        0.0207
     15 C          63.2276   82.7417   12.6180 C.ar    1  UNL1        0.0031
     16 C          63.6626   81.6471   11.6893 C.ar    1  UNL1        0.0001
     17 C          63.9376   81.9526   10.2467 C.ar    1  UNL1        0.0000
     18 C          63.7776   83.3528    9.7329 C.ar    1  UNL1        0.0000
     19 C          63.3426   84.4474   10.6616 C.ar    1  UNL1        0.0016
     20 C          63.0676   84.1419   12.1041 C.ar    1  UNL1        0.0207
     21 N          64.5663   91.3024   11.9236 N.am    1  UNL1       -0.3012
     22 C          64.2353   90.1763   12.8575 C.2     1  UNL1        0.2668
     23 O          64.8655   90.1198   14.2174 O.2     1  UNL1       -0.2684
     24 H          64.1526   91.3395   11.0310 H       1  UNL1        0.1497
     25 C          65.7314   92.6600   13.8076 C.3     1  UNL1        0.0213
     26 C          65.5276   92.3721   12.3497 C.3     1  UNL1        0.0719
     27 C          66.2851   93.1540   11.3178 C.3     1  UNL1        0.0180
     28 C          66.1021   94.6396   11.2188 C.3     1  UNL1        0.0016
     29 C          66.8596   95.4215   10.1869 C.3     1  UNL1        0.0001
     30 C          67.8001   94.7179    9.2540 C.3     1  UNL1        0.0000
     31 C          67.9831   93.2324    9.3529 C.3     1  UNL1        0.0001
     32 C          67.2256   92.4504   10.3848 C.3     1  UNL1        0.0016
@<TRIPOS>BOND
     1    26    25    1
     2    26    21    1
     3    21    22   am
     4    22    23    2
     5    22     1    1
     6     1     2   ar
     7     2     3   ar
     8     3    11    1
     9    11    12   ar
    10    12    13   ar
    11    13    14   ar
    12    14    15   ar
    13    15    16   ar
    14    16    17   ar
    15    17    18   ar
    16    18    19   ar
    17    19    20   ar
    18     3     4   ar
    19     4     5   ar
    20     5     6    1
    21     5     7   ar
    22     7     8    1
    23    26    27    1
    24    27    28    1
    25    28    29    1
    26    29    30    1
    27    30    31    1
    28    31    32    1
    29     7     1   ar
    30    32    27    1
    31    20    11   ar
    32    20    15   ar
    33    21    24    1
    34     6     9    1
    35     8    10    1
@<TRIPOS>MOLECULE
*****
 32 35 0 0 0
SMALL
GASTEIGER

@<TRIPOS>ATOM
      1 C          63.9580   86.5102   14.3832 C.ar    1  UNL1        0.1743
      2 N          64.1738   87.6957   13.4899 N.ar    1  UNL1       -0.2173
      3 C          63.9998   89.0839   14.0307 C.ar    1  UNL1        0.1834
      4 N          63.6099   89.2867   15.4650 N.ar    1  UNL1       -0.1885
      5 C          63.3941   88.1012   16.3583 C.ar    1  UNL1        0.2596
      6 O          63.0042   88.3039   17.7925 O.3     1  UNL1       -0.4898
      7 C          63.5681   86.7129   15.8174 C.ar    1  UNL1        0.2098
      8 O          63.3523   85.5274   16.7107 O.3     1  UNL1       -0.5007
      9 H          62.8955   89.1711   18.1303 H       1  UNL1        0.2938
     10 H          63.1088   85.6541   17.6066 H       1  UNL1        0.2924
     11 C          64.2157   90.2694   13.1374 C.ar    1  UNL1        0.1170
     12 N          63.4862   90.3663   11.8304 N.ar    1  UNL1       -0.2407
     13 C          63.7020   91.5518   10.9370 C.ar    1  UNL1        0.0989
     14 C          64.6473   92.6404   11.3508 C.ar    1  UNL1        0.0207
     15 C          65.3769   92.5435   12.6579 C.ar    1  UNL1        0.0031
     16 C          66.3222   93.6322   13.0716 C.ar    1  UNL1        0.0001
     17 C          67.0517   93.5353   14.3786 C.ar    1  UNL1        0.0000
     18 C          66.8359   92.3498   15.2720 C.ar    1  UNL1        0.0000
     19 C          65.8905   91.2612   14.8582 C.ar    1  UNL1        0.0016
     20 C          65.1611   91.3581   13.5512 C.ar    1  UNL1        0.0207
     21 N          63.4910   84.7380   12.5416 N.am    1  UNL1       -0.3012
     22 C          64.1320   85.1220   13.8423 C.2     1  UNL1        0.2668
     23 O          64.9470   84.1177   14.6020 O.2     1  UNL1       -0.2684
     24 H          62.9561   85.3972   12.0430 H       1  UNL1        0.1497
     25 C          64.5789   83.1078   10.8362 C.3     1  UNL1        0.0213
     26 C          63.6650   83.3498   12.0007 C.3     1  UNL1        0.0719
     27 C          62.9251   82.2038   12.6243 C.3     1  UNL1        0.0180
     28 C          63.1297   80.8098   12.1094 C.3     1  UNL1        0.0016
     29 C          62.3898   79.6637   12.7330 C.3     1  UNL1        0.0001
     30 C          61.4452   79.9115   13.8715 C.3     1  UNL1        0.0000
     31 C          61.2405   81.3053   14.3865 C.3     1  UNL1        0.0001
     32 C          61.9805   82.4515   13.7629 C.3     1  UNL1        0.0016
@<TRIPOS>BOND
     1    26    25    1
     2    26    21    1
     3    21    22   am
     4    22    23    2
     5    22     1    1
     6     1     2   ar
     7     2     3   ar
     8     3    11    1
     9    11    12   ar
    10    12    13   ar
    11    13    14   ar
    12    14    15   ar
    13    15    16   ar
    14    16    17   ar
    15    17    18   ar
    16    18    19   ar
    17    19    20   ar
    18     3     4   ar
    19     4     5   ar
    20     5     6    1
    21     5     7   ar
    22     7     8    1
    23    26    27    1
    24    27    28    1
    25    28    29    1
    26    29    30    1
    27    30    31    1
    28    31    32    1
    29     7     1   ar
    30    32    27    1
    31    20    11   ar
    32    20    15   ar
    33    21    24    1
    34     6     9    1
    35     8    10    1
