@<TRIPOS>MOLECULE
*****
 28 31 0 0 0
SMALL
GASTEIGER

@<TRIPOS>ATOM
      1 C          64.9016   91.1383   14.6036 C.ar    1  UNL1        0.0880
      2 C          64.2136   91.5646   15.8665 C.ar    1  UNL1        0.1149
      3 N          63.4237   90.5688   16.6629 N.ar    1  UNL1       -0.2409
      4 C          63.3218   89.1468   16.1966 C.ar    1  UNL1        0.1009
      5 C          64.0098   88.7205   14.9337 C.ar    1  UNL1        0.0443
      6 C          64.7998   89.7163   14.1372 C.ar    1  UNL1        0.0213
      7 C          63.9080   87.2985   14.4673 C.ar    1  UNL1        0.1122
      8 N          63.4303   86.8446   13.1198 N.ar    1  UNL1       -0.2383
      9 C          63.4930   85.3463   13.0862 C.ar    1  UNL1        0.0879
     10 C          63.1465   84.3509   12.0189 C.ar    1  UNL1        0.0196
     11 C          63.3165   82.8834   12.2784 C.ar    1  UNL1        0.0016
     12 C          63.8330   82.4113   13.6052 C.ar    1  UNL1        0.0006
     13 C          64.1794   83.4066   14.6725 C.ar    1  UNL1        0.0080
     14 C          64.0094   84.8742   14.4130 C.ar    1  UNL1        0.0485
     15 S          64.2659   86.0807   15.2665 S.2     1  UNL1       -0.0664
     16 N          65.6916   92.1341   13.8071 N.pl3   1  UNL1       -0.1883
     17 S          66.9173   92.7647   14.3986 S.O2    1  UNL1        0.0572
     18 O          66.2064   94.0838   14.4655 O.2     1  UNL1       -0.1543
     19 O          67.6283   91.4456   14.3317 O.2     1  UNL1       -0.1543
     20 C          68.9268   92.6686   16.0427 C.3     1  UNL1        0.0292
     21 C          68.1430   93.3953   14.9902 C.3     1  UNL1        0.1727
     22 C          65.2559   92.4992   12.4190 C.3     1  UNL1        0.1434
     23 C          66.2666   92.9673   11.4143 C.ar    1  UNL1        0.0186
     24 C          67.1946   91.9814   10.7687 C.ar    1  UNL1        0.0006
     25 C          68.2053   92.4495    9.7641 C.ar    1  UNL1        0.0204
     26 C          68.2880   93.9035    9.4051 C.ar    1  UNL1        0.0989
     27 N          67.3601   94.8895   10.0506 N.ar    1  UNL1       -0.2426
     28 C          66.3494   94.4214   11.0553 C.ar    1  UNL1        0.0963
@<TRIPOS>BOND
     1    20    21    1
     2    21    17    1
     3    17    18    2
     4    17    19    2
     5    17    16    1
     6    16    22    1
     7    22    23    1
     8    23    24   ar
     9    24    25   ar
    10    25    26   ar
    11    26    27   ar
    12    27    28   ar
    13    16     1    1
    14     1     2   ar
    15     2     3   ar
    16     3     4   ar
    17     4     5   ar
    18     5     7    1
    19     7     8   ar
    20     8     9   ar
    21     9    10   ar
    22    10    11   ar
    23    11    12   ar
    24    12    13   ar
    25    13    14   ar
    26    14    15   ar
    27     5     6   ar
    28    28    23   ar
    29     6     1   ar
    30    15     7   ar
    31    14     9   ar
@<TRIPOS>MOLECULE
*****
 28 31 0 0 0
SMALL
GASTEIGER

@<TRIPOS>ATOM
      1 C          65.0530   91.6462   13.6524 C.ar    1  UNL1        0.0880
      2 C          64.8268   91.2428   15.0793 C.ar    1  UNL1        0.1149
      3 N          63.8166   90.1839   15.4082 N.ar    1  UNL1       -0.2409
      4 C          63.0326   89.5284   14.3101 C.ar    1  UNL1        0.1009
      5 C          63.2587   89.9319   12.8833 C.ar    1  UNL1        0.0443
      6 C          64.2689   90.9908   12.5544 C.ar    1  UNL1        0.0213
      7 C          62.4747   89.2764   11.7852 C.ar    1  UNL1        0.1122
      8 N          62.3770   87.8014   11.5310 N.ar    1  UNL1       -0.2383
      9 C          61.4926   87.5942   10.3373 C.ar    1  UNL1        0.0879
     10 C          61.0380   86.3531    9.6282 C.ar    1  UNL1        0.0196
     11 C          60.1346   86.4590    8.4355 C.ar    1  UNL1        0.0016
     12 C          59.6857   87.8061    7.9520 C.ar    1  UNL1        0.0006
     13 C          60.1402   89.0473    8.6611 C.ar    1  UNL1        0.0080
     14 C          61.0437   88.9413    9.8537 C.ar    1  UNL1        0.0485
     15 S          61.6506   89.9809   10.7486 S.2     1  UNL1       -0.0664
     16 N          66.0632   92.7051   13.3235 N.pl3   1  UNL1       -0.1883
     17 S          67.3121   92.8312   14.1448 S.O2    1  UNL1        0.0572
     18 O          66.8526   94.1713   14.6377 O.2     1  UNL1       -0.1543
     19 O          67.7715   91.4911   13.6519 O.2     1  UNL1       -0.1543
     20 C          68.6467   92.2915   16.3076 C.3     1  UNL1        0.0292
     21 C          68.5609   92.9573   14.9661 C.3     1  UNL1        0.1727
     22 C          65.8246   93.6380   12.1734 C.3     1  UNL1        0.1434
     23 C          66.6912   93.5591   10.9515 C.ar    1  UNL1        0.0186
     24 C          67.2976   92.2487   10.5453 C.ar    1  UNL1        0.0006
     25 C          68.1641   92.1699    9.3235 C.ar    1  UNL1        0.0204
     26 C          68.4242   93.4016    8.5079 C.ar    1  UNL1        0.0989
     27 N          67.8179   94.7120    8.9140 N.ar    1  UNL1       -0.2426
     28 C          66.9513   94.7908   10.1358 C.ar    1  UNL1        0.0963
@<TRIPOS>BOND
     1    20    21    1
     2    21    17    1
     3    17    18    2
     4    17    19    2
     5    17    16    1
     6    16    22    1
     7    22    23    1
     8    23    24   ar
     9    24    25   ar
    10    25    26   ar
    11    26    27   ar
    12    27    28   ar
    13    16     1    1
    14     1     2   ar
    15     2     3   ar
    16     3     4   ar
    17     4     5   ar
    18     5     7    1
    19     7     8   ar
    20     8     9   ar
    21     9    10   ar
    22    10    11   ar
    23    11    12   ar
    24    12    13   ar
    25    13    14   ar
    26    14    15   ar
    27     5     6   ar
    28    28    23   ar
    29     6     1   ar
    30    15     7   ar
    31    14     9   ar
@<TRIPOS>MOLECULE
*****
 28 31 0 0 0
SMALL
GASTEIGER

@<TRIPOS>ATOM
      1 C          64.3610   91.4058   13.2448 C.ar    1  UNL1        0.0880
      2 C          65.1029   92.4825   12.5098 C.ar    1  UNL1        0.1149
      3 N          64.9297   92.6348   11.0277 N.ar    1  UNL1       -0.2409
      4 C          64.0146   91.7104   10.2806 C.ar    1  UNL1        0.1009
      5 C          63.2728   90.6337   11.0156 C.ar    1  UNL1        0.0443
      6 C          63.4460   90.4814   12.4977 C.ar    1  UNL1        0.0213
      7 C          62.3577   89.7093   10.2685 C.ar    1  UNL1        0.1122
      8 N          61.1853   90.1190    9.4274 N.ar    1  UNL1       -0.2383
      9 C          60.5574   88.8758    8.8704 C.ar    1  UNL1        0.0879
     10 C          59.3727   88.6643    7.9749 C.ar    1  UNL1        0.0196
     11 C          58.9725   87.2748    7.5764 C.ar    1  UNL1        0.0016
     12 C          59.7569   86.0967    8.0733 C.ar    1  UNL1        0.0006
     13 C          60.9415   86.3082    8.9687 C.ar    1  UNL1        0.0080
     14 C          61.3418   87.6978    9.3672 C.ar    1  UNL1        0.0485
     15 S          62.4544   88.2129   10.2313 S.2     1  UNL1       -0.0664
     16 N          64.5342   91.2535   14.7270 N.pl3   1  UNL1       -0.1883
     17 S          65.7235   91.8616   15.4096 S.O2    1  UNL1        0.0572
     18 O          66.6367   91.0203   14.5679 O.2     1  UNL1       -0.1543
     19 O          64.8103   92.7028   16.2512 O.2     1  UNL1       -0.1543
     20 C          68.2910   92.2334   15.5493 C.3     1  UNL1        0.0292
     21 C          66.9127   92.4697   16.0921 C.3     1  UNL1        0.1727
     22 C          63.5182   90.4930   15.5266 C.3     1  UNL1        0.1434
     23 C          63.6392   89.0050   15.6723 C.ar    1  UNL1        0.0186
     24 C          64.4031   88.2114   14.6541 C.ar    1  UNL1        0.0006
     25 C          64.5242   86.7235   14.7998 C.ar    1  UNL1        0.0204
     26 C          63.8813   86.0291   15.9636 C.ar    1  UNL1        0.0989
     27 N          63.1174   86.8226   16.9818 N.ar    1  UNL1       -0.2426
     28 C          62.9964   88.3106   16.8361 C.ar    1  UNL1        0.0963
@<TRIPOS>BOND
     1    20    21    1
     2    21    17    1
     3    17    18    2
     4    17    19    2
     5    17    16    1
     6    16    22    1
     7    22    23    1
     8    23    24   ar
     9    24    25   ar
    10    25    26   ar
    11    26    27   ar
    12    27    28   ar
    13    16     1    1
    14     1     2   ar
    15     2     3   ar
    16     3     4   ar
    17     4     5   ar
    18     5     7    1
    19     7     8   ar
    20     8     9   ar
    21     9    10   ar
    22    10    11   ar
    23    11    12   ar
    24    12    13   ar
    25    13    14   ar
    26    14    15   ar
    27     5     6   ar
    28    28    23   ar
    29     6     1   ar
    30    15     7   ar
    31    14     9   ar
@<TRIPOS>MOLECULE
*****
 28 31 0 0 0
SMALL
GASTEIGER

@<TRIPOS>ATOM
      1 C          63.4404   89.4367   12.5690 C.ar    1  UNL1        0.0880
      2 C          62.8904   89.9617   11.2760 C.ar    1  UNL1        0.1149
      3 N          62.2938   89.0162   10.2759 N.ar    1  UNL1       -0.2409
      4 C          62.2473   87.5459   10.5688 C.ar    1  UNL1        0.1009
      5 C          62.7974   87.0209   11.8618 C.ar    1  UNL1        0.0443
      6 C          63.3939   87.9663   12.8619 C.ar    1  UNL1        0.0213
      7 C          62.7509   85.5505   12.1546 C.ar    1  UNL1        0.1122
      8 N          62.4938   84.9259   13.4940 N.ar    1  UNL1       -0.2383
      9 C          62.5373   83.4359   13.3267 C.ar    1  UNL1        0.0879
     10 C          62.3551   82.3107   14.3017 C.ar    1  UNL1        0.0196
     11 C          62.4568   80.8892   13.8340 C.ar    1  UNL1        0.0016
     12 C          62.7407   80.5929   12.3912 C.ar    1  UNL1        0.0006
     13 C          62.9229   81.7180   11.4162 C.ar    1  UNL1        0.0080
     14 C          62.8213   83.1396   11.8840 C.ar    1  UNL1        0.0485
     15 S          62.9532   84.4465   11.1596 S.2     1  UNL1       -0.0664
     16 N          64.0370   90.3822   13.5692 N.pl3   1  UNL1       -0.1883
     17 S          63.8272   90.1522   15.0365 S.O2    1  UNL1        0.0572
     18 O          63.0537   91.4342   15.1269 O.2     1  UNL1       -0.1543
     19 O          64.6007   88.8702   14.9462 O.2     1  UNL1       -0.1543
     20 C          63.1076   88.5979   16.9901 C.3     1  UNL1        0.0292
     21 C          63.6173   89.9222   16.5039 C.3     1  UNL1        0.1727
     22 C          64.8433   91.5575   13.1020 C.3     1  UNL1        0.1434
     23 C          66.1112   91.9275   13.8131 C.ar    1  UNL1        0.0186
     24 C          66.0640   92.3876   15.2400 C.ar    1  UNL1        0.0006
     25 C          67.3318   92.7576   15.9511 C.ar    1  UNL1        0.0204
     26 C          68.6469   92.6675   15.2352 C.ar    1  UNL1        0.0989
     27 N          68.6941   92.2074   13.8084 N.ar    1  UNL1       -0.2426
     28 C          67.4263   91.8375   13.0973 C.ar    1  UNL1        0.0963
@<TRIPOS>BOND
     1    20    21    1
     2    21    17    1
     3    17    18    2
     4    17    19    2
     5    17    16    1
     6    16    22    1
     7    22    23    1
     8    23    24   ar
     9    24    25   ar
    10    25    26   ar
    11    26    27   ar
    12    27    28   ar
    13    16     1    1
    14     1     2   ar
    15     2     3   ar
    16     3     4   ar
    17     4     5   ar
    18     5     7    1
    19     7     8   ar
    20     8     9   ar
    21     9    10   ar
    22    10    11   ar
    23    11    12   ar
    24    12    13   ar
    25    13    14   ar
    26    14    15   ar
    27     5     6   ar
    28    28    23   ar
    29     6     1   ar
    30    15     7   ar
    31    14     9   ar
@<TRIPOS>MOLECULE
*****
 28 31 0 0 0
SMALL
GASTEIGER

@<TRIPOS>ATOM
      1 C          61.9260   86.9081   11.1872 C.ar    1  UNL1        0.0880
      2 C          60.4832   87.3006   11.0679 C.ar    1  UNL1        0.1149
      3 N          60.0449   88.6775   11.4703 N.ar    1  UNL1       -0.2409
      4 C          61.0493   89.6619   11.9920 C.ar    1  UNL1        0.1009
      5 C          62.4921   89.2693   12.1113 C.ar    1  UNL1        0.0443
      6 C          62.9304   87.8924   11.7089 C.ar    1  UNL1        0.0213
      7 C          63.4965   90.2537   12.6330 C.ar    1  UNL1        0.1122
      8 N          64.0880   91.3997   11.8670 N.ar    1  UNL1       -0.2383
      9 C          65.0429   92.1192   12.7728 C.ar    1  UNL1        0.0879
     10 C          65.9133   93.3223   12.5617 C.ar    1  UNL1        0.0196
     11 C          66.7825   93.8241   13.6764 C.ar    1  UNL1        0.0016
     12 C          66.7812   93.1227   15.0023 C.ar    1  UNL1        0.0006
     13 C          65.9107   91.9195   15.2135 C.ar    1  UNL1        0.0080
     14 C          65.0416   91.4178   14.0988 C.ar    1  UNL1        0.0485
     15 S          64.0859   90.2649   14.0123 S.2     1  UNL1       -0.0664
     16 N          62.3644   85.5311   10.7847 N.pl3   1  UNL1       -0.1883
     17 S          62.7493   85.2525    9.3620 S.O2    1  UNL1        0.0572
     18 O          61.9364   86.4299    8.9115 O.2     1  UNL1       -0.1543
     19 O          63.5621   84.0751    9.8124 O.2     1  UNL1       -0.1543
     20 C          62.0765   84.8899    6.8788 C.3     1  UNL1        0.0292
     21 C          63.1341   84.9738    7.9392 C.3     1  UNL1        0.1727
     22 C          62.4180   84.4329   11.8050 C.3     1  UNL1        0.1434
     23 C          62.8521   84.7340   13.2090 C.ar    1  UNL1        0.0186
     24 C          64.1839   85.3765   13.4607 C.ar    1  UNL1        0.0006
     25 C          64.6179   85.6775   14.8646 C.ar    1  UNL1        0.0204
     26 C          63.7201   85.3361   16.0167 C.ar    1  UNL1        0.0989
     27 N          62.3883   84.6937   15.7650 N.ar    1  UNL1       -0.2426
     28 C          61.9543   84.3926   14.3611 C.ar    1  UNL1        0.0963
@<TRIPOS>BOND
     1    20    21    1
     2    21    17    1
     3    17    18    2
     4    17    19    2
     5    17    16    1
     6    16    22    1
     7    22    23    1
     8    23    24   ar
     9    24    25   ar
    10    25    26   ar
    11    26    27   ar
    12    27    28   ar
    13    16     1    1
    14     1     2   ar
    15     2     3   ar
    16     3     4   ar
    17     4     5   ar
    18     5     7    1
    19     7     8   ar
    20     8     9   ar
    21     9    10   ar
    22    10    11   ar
    23    11    12   ar
    24    12    13   ar
    25    13    14   ar
    26    14    15   ar
    27     5     6   ar
    28    28    23   ar
    29     6     1   ar
    30    15     7   ar
    31    14     9   ar
@<TRIPOS>MOLECULE
*****
 28 31 0 0 0
SMALL
GASTEIGER

@<TRIPOS>ATOM
      1 C          61.4756   87.5196    9.7626 C.ar    1  UNL1        0.0880
      2 C          60.3303   88.2651    9.1443 C.ar    1  UNL1        0.1149
      3 N          60.1719   89.7360    9.3919 N.ar    1  UNL1       -0.2409
      4 C          61.1589   90.4614   10.2577 C.ar    1  UNL1        0.1009
      5 C          62.3043   89.7159   10.8759 C.ar    1  UNL1        0.0443
      6 C          62.4627   88.2450   10.6284 C.ar    1  UNL1        0.0213
      7 C          63.2913   90.4413   11.7417 C.ar    1  UNL1        0.1122
      8 N          64.1628   91.5859   11.3169 N.ar    1  UNL1       -0.2383
      9 C          64.9902   92.0014   12.4969 C.ar    1  UNL1        0.0879
     10 C          66.0250   93.0735   12.6696 C.ar    1  UNL1        0.0196
     11 C          66.6998   93.2578   13.9965 C.ar    1  UNL1        0.0016
     12 C          66.3398   92.3700   15.1507 C.ar    1  UNL1        0.0006
     13 C          65.3050   91.2979   14.9781 C.ar    1  UNL1        0.0080
     14 C          64.6302   91.1136   13.6512 C.ar    1  UNL1        0.0485
     15 S          63.5803   90.1494   13.1844 S.2     1  UNL1       -0.0664
     16 N          61.6340   86.0486    9.5151 N.pl3   1  UNL1       -0.1883
     17 S          62.0428   85.5561    8.1585 S.O2    1  UNL1        0.0572
     18 O          60.5997   85.4376    7.7667 O.2     1  UNL1       -0.1543
     19 O          63.4859   85.6746    8.5502 O.2     1  UNL1       -0.1543
     20 C          61.5013   84.2379    5.9860 C.3     1  UNL1        0.0292
     21 C          62.4515   85.0636    6.8018 C.3     1  UNL1        0.1727
     22 C          61.3837   85.0702   10.6241 C.3     1  UNL1        0.1434
     23 C          62.5206   84.6060   11.4856 C.ar    1  UNL1        0.0186
     24 C          63.2882   83.3722   11.1136 C.ar    1  UNL1        0.0006
     25 C          64.4250   82.9080   11.9751 C.ar    1  UNL1        0.0204
     26 C          64.7942   83.6776   13.2085 C.ar    1  UNL1        0.0989
     27 N          64.0266   84.9115   13.5805 N.ar    1  UNL1       -0.2426
     28 C          62.8898   85.3756   12.7190 C.ar    1  UNL1        0.0963
@<TRIPOS>BOND
     1    20    21    1
     2    21    17    1
     3    17    18    2
     4    17    19    2
     5    17    16    1
     6    16    22    1
     7    22    23    1
     8    23    24   ar
     9    24    25   ar
    10    25    26   ar
    11    26    27   ar
    12    27    28   ar
    13    16     1    1
    14     1     2   ar
    15     2     3   ar
    16     3     4   ar
    17     4     5   ar
    18     5     7    1
    19     7     8   ar
    20     8     9   ar
    21     9    10   ar
    22    10    11   ar
    23    11    12   ar
    24    12    13   ar
    25    13    14   ar
    26    14    15   ar
    27     5     6   ar
    28    28    23   ar
    29     6     1   ar
    30    15     7   ar
    31    14     9   ar
@<TRIPOS>MOLECULE
*****
 28 31 0 0 0
SMALL
GASTEIGER

@<TRIPOS>ATOM
      1 C          63.3757   82.7694   12.4546 C.ar    1  UNL1        0.0880
      2 C          64.4273   82.1173   11.6069 C.ar    1  UNL1        0.1149
      3 N          64.7207   82.6486   10.2352 N.ar    1  UNL1       -0.2409
      4 C          63.9623   83.8320    9.7112 C.ar    1  UNL1        0.1009
      5 C          62.9107   84.4841   10.5590 C.ar    1  UNL1        0.0443
      6 C          62.6173   83.9528   11.9307 C.ar    1  UNL1        0.0213
      7 C          62.1523   85.6675   10.0350 C.ar    1  UNL1        0.1122
      8 N          61.2798   85.6858    8.8150 N.ar    1  UNL1       -0.2383
      9 C          60.7216   87.0699    8.6650 C.ar    1  UNL1        0.0879
     10 C          59.8011   87.6761    7.6477 C.ar    1  UNL1        0.0196
     11 C          59.4081   89.1195    7.7575 C.ar    1  UNL1        0.0016
     12 C          59.9357   89.9568    8.8848 C.ar    1  UNL1        0.0006
     13 C          60.8562   89.3505    9.9022 C.ar    1  UNL1        0.0080
     14 C          61.2492   87.9071    9.7923 C.ar    1  UNL1        0.0485
     15 S          62.1334   87.0404   10.6390 S.2     1  UNL1       -0.0664
     16 N          63.0823   82.2381   13.8264 N.pl3   1  UNL1       -0.1883
     17 S          62.0735   81.1428   14.0065 S.O2    1  UNL1        0.0572
     18 O          63.0319   80.1605   13.4010 O.2     1  UNL1       -0.1543
     19 O          61.1151   82.1250   14.6121 O.2     1  UNL1       -0.1543
     20 C          59.6009   80.3737   14.2186 C.3     1  UNL1        0.0292
     21 C          61.0646   80.0474   14.1867 C.3     1  UNL1        0.1727
     22 C          63.7977   82.8022   15.0180 C.3     1  UNL1        0.1434
     23 C          63.7467   84.2755   15.2953 C.ar    1  UNL1        0.0186
     24 C          64.7669   85.1895   14.6840 C.ar    1  UNL1        0.0006
     25 C          64.7159   86.6627   14.9613 C.ar    1  UNL1        0.0204
     26 C          63.6446   87.2220   15.8499 C.ar    1  UNL1        0.0989
     27 N          62.6244   86.3080   16.4613 N.ar    1  UNL1       -0.2426
     28 C          62.6755   84.8348   16.1840 C.ar    1  UNL1        0.0963
@<TRIPOS>BOND
     1    20    21    1
     2    21    17    1
     3    17    18    2
     4    17    19    2
     5    17    16    1
     6    16    22    1
     7    22    23    1
     8    23    24   ar
     9    24    25   ar
    10    25    26   ar
    11    26    27   ar
    12    27    28   ar
    13    16     1    1
    14     1     2   ar
    15     2     3   ar
    16     3     4   ar
    17     4     5   ar
    18     5     7    1
    19     7     8   ar
    20     8     9   ar
    21     9    10   ar
    22    10    11   ar
    23    11    12   ar
    24    12    13   ar
    25    13    14   ar
    26    14    15   ar
    27     5     6   ar
    28    28    23   ar
    29     6     1   ar
    30    15     7   ar
    31    14     9   ar
@<TRIPOS>MOLECULE
*****
 28 31 0 0 0
SMALL
GASTEIGER

@<TRIPOS>ATOM
      1 C          61.4039   88.1116   10.3104 C.ar    1  UNL1        0.0880
      2 C          60.3344   88.9646    9.6953 C.ar    1  UNL1        0.1149
      3 N          60.3259   90.4453    9.9346 N.ar    1  UNL1       -0.2409
      4 C          61.3870   91.0730   10.7891 C.ar    1  UNL1        0.1009
      5 C          62.4565   90.2200   11.4043 C.ar    1  UNL1        0.0443
      6 C          62.4649   88.7393   11.1649 C.ar    1  UNL1        0.0213
      7 C          63.5175   90.8477   12.2588 C.ar    1  UNL1        0.1122
      8 N          63.6991   90.6405   13.7332 N.ar    1  UNL1       -0.2383
      9 C          64.8771   91.4575   14.1746 C.ar    1  UNL1        0.0879
     10 C          65.5227   91.6451   15.5154 C.ar    1  UNL1        0.0196
     11 C          66.7149   92.5447   15.6546 C.ar    1  UNL1        0.0016
     12 C          67.2614   93.2568   14.4528 C.ar    1  UNL1        0.0006
     13 C          66.6158   93.0693   13.1119 C.ar    1  UNL1        0.0080
     14 C          65.4236   92.1697   12.9728 C.ar    1  UNL1        0.0485
     15 S          64.5834   91.7927   11.7888 S.2     1  UNL1       -0.0664
     16 N          61.4124   86.6308   10.0710 N.pl3   1  UNL1       -0.1883
     17 S          61.4789   86.0978    8.6705 S.O2    1  UNL1        0.0572
     18 O          62.9693   86.2673    8.6768 O.2     1  UNL1       -0.1543
     19 O          59.9885   85.9283    8.6642 O.2     1  UNL1       -0.1543
     20 C          62.6831   84.6782    6.8582 C.3     1  UNL1        0.0292
     21 C          61.5454   85.5649    7.2700 C.3     1  UNL1        0.1727
     22 C          61.3543   85.6830   11.2322 C.3     1  UNL1        0.1434
     23 C          62.5537   84.8536   11.5841 C.ar    1  UNL1        0.0186
     24 C          63.0623   83.8235   10.6196 C.ar    1  UNL1        0.0006
     25 C          64.2616   82.9942   10.9715 C.ar    1  UNL1        0.0204
     26 C          64.9523   83.1950   12.2878 C.ar    1  UNL1        0.0989
     27 N          64.4436   84.2250   13.2523 N.ar    1  UNL1       -0.2426
     28 C          63.2443   85.0544   12.9004 C.ar    1  UNL1        0.0963
@<TRIPOS>BOND
     1    20    21    1
     2    21    17    1
     3    17    18    2
     4    17    19    2
     5    17    16    1
     6    16    22    1
     7    22    23    1
     8    23    24   ar
     9    24    25   ar
    10    25    26   ar
    11    26    27   ar
    12    27    28   ar
    13    16     1    1
    14     1     2   ar
    15     2     3   ar
    16     3     4   ar
    17     4     5   ar
    18     5     7    1
    19     7     8   ar
    20     8     9   ar
    21     9    10   ar
    22    10    11   ar
    23    11    12   ar
    24    12    13   ar
    25    13    14   ar
    26    14    15   ar
    27     5     6   ar
    28    28    23   ar
    29     6     1   ar
    30    15     7   ar
    31    14     9   ar
@<TRIPOS>MOLECULE
*****
 28 31 0 0 0
SMALL
GASTEIGER

@<TRIPOS>ATOM
      1 C          63.3415   88.7063   13.0405 C.ar    1  UNL1        0.0880
      2 C          64.1683   89.0638   14.2399 C.ar    1  UNL1        0.1149
      3 N          64.7499   87.9809   15.0996 N.ar    1  UNL1       -0.2409
      4 C          64.5049   86.5406   14.7598 C.ar    1  UNL1        0.1009
      5 C          63.6781   86.1832   13.5604 C.ar    1  UNL1        0.0443
      6 C          63.0965   87.2660   12.7007 C.ar    1  UNL1        0.0213
      7 C          63.4331   84.7429   13.2206 C.ar    1  UNL1        0.1122
      8 N          63.6207   84.1105   11.8734 N.ar    1  UNL1       -0.2383
      9 C          63.2610   82.6588   11.9885 C.ar    1  UNL1        0.0879
     10 C          63.2537   81.5440   10.9851 C.ar    1  UNL1        0.0196
     11 C          62.8365   80.1642   11.4000 C.ar    1  UNL1        0.0016
     12 C          62.4265   79.8994   12.8184 C.ar    1  UNL1        0.0006
     13 C          62.4337   81.0143   13.8218 C.ar    1  UNL1        0.0080
     14 C          62.8510   82.3940   13.4069 C.ar    1  UNL1        0.0485
     15 S          62.9573   83.6820   14.1683 S.2     1  UNL1       -0.0664
     16 N          62.7598   89.7892   12.1808 N.pl3   1  UNL1       -0.1883
     17 S          61.8285   89.4371   11.0588 S.O2    1  UNL1        0.0572
     18 O          62.9802   89.4527   10.0979 O.2     1  UNL1       -0.1543
     19 O          60.6768   89.4214   12.0197 O.2     1  UNL1       -0.1543
     20 C          60.0981   87.8169    9.9955 C.3     1  UNL1        0.0292
     21 C          60.8973   89.0850    9.9369 C.3     1  UNL1        0.1727
     22 C          63.1093   91.2241   12.4430 C.3     1  UNL1        0.1434
     23 C          64.4707   91.7421   12.0844 C.ar    1  UNL1        0.0186
     24 C          65.5402   91.8289   13.1325 C.ar    1  UNL1        0.0006
     25 C          66.9014   92.3468   12.7739 C.ar    1  UNL1        0.0204
     26 C          67.1932   92.7780   11.3671 C.ar    1  UNL1        0.0989
     27 N          66.1237   92.6912   10.3190 N.ar    1  UNL1       -0.2426
     28 C          64.7625   92.1732   10.6776 C.ar    1  UNL1        0.0963
@<TRIPOS>BOND
     1    20    21    1
     2    21    17    1
     3    17    18    2
     4    17    19    2
     5    17    16    1
     6    16    22    1
     7    22    23    1
     8    23    24   ar
     9    24    25   ar
    10    25    26   ar
    11    26    27   ar
    12    27    28   ar
    13    16     1    1
    14     1     2   ar
    15     2     3   ar
    16     3     4   ar
    17     4     5   ar
    18     5     7    1
    19     7     8   ar
    20     8     9   ar
    21     9    10   ar
    22    10    11   ar
    23    11    12   ar
    24    12    13   ar
    25    13    14   ar
    26    14    15   ar
    27     5     6   ar
    28    28    23   ar
    29     6     1   ar
    30    15     7   ar
    31    14     9   ar
