@<TRIPOS>MOLECULE
*****
 39 43 0 0 0
SMALL
GASTEIGER

@<TRIPOS>ATOM
      1 C          58.6477   88.9805    6.6826 C.3     1  UNL1        0.2374
      2 C          59.4560   88.0198    7.5035 C.3     1  UNL1        0.1909
      3 C          59.1990   86.5489    7.6462 C.3     1  UNL1        0.1783
      4 O          60.2473   85.9813    8.5566 O.3     1  UNL1       -0.3267
      5 C          61.1523   87.1014    8.9766 C.3     1  UNL1        0.2296
      6 O          60.6632   88.3613    8.3257 O.3     1  UNL1       -0.3255
      7 C          61.8614   86.0289    9.7489 C.ar    1  UNL1        0.0409
      8 C          61.6159   85.8778   11.2210 C.ar    1  UNL1        0.0022
      9 C          62.3251   84.8053   11.9935 C.ar    1  UNL1        0.0113
     10 C          63.2799   83.8838   11.2939 C.ar    1  UNL1        0.0585
     11 CL         63.9891   82.8113   12.0663 Cl      1  UNL1       -0.0822
     12 C          63.5254   84.0349    9.8218 C.ar    1  UNL1        0.0226
     13 C          62.8162   85.1074    9.0494 C.ar    1  UNL1        0.0591
     14 CL         63.0617   85.2586    7.5774 Cl      1  UNL1       -0.0824
     15 C          62.2055   87.9974    9.5580 C.3     1  UNL1        0.1682
     16 N          61.9252   88.7675   10.8143 N.ar    1  UNL1       -0.3025
     17 C          62.9524   89.3471   11.7409 C.ar    1  UNL1        0.0982
     18 C          62.2305   90.0309   12.8639 C.ar    1  UNL1        0.1193
     19 N          60.7570   89.8738   12.6314 N.ar    1  UNL1       -0.2223
     20 C          60.5683   89.0930   11.3647 C.ar    1  UNL1        0.1788
     21 O          58.9987   90.4388    6.6734 O.3     1  UNL1       -0.4727
     22 C          61.0843   92.2286    3.1101 C.ar    1  UNL1        0.0481
     23 C          61.7865   91.2077    3.9555 C.ar    1  UNL1        0.0176
     24 C          61.0912   90.6111    5.1432 C.ar    1  UNL1        0.0382
     25 C          59.6939   91.0354    5.4856 C.ar    1  UNL1        0.1388
     26 C          58.9917   92.0563    4.6402 C.ar    1  UNL1        0.0382
     27 C          59.6869   92.6528    3.4524 C.ar    1  UNL1        0.0176
     28 N          63.1699   94.0183   -0.4532 N.3     1  UNL1       -0.1508
     29 C          63.9656   93.5863    0.7427 C.3     1  UNL1        0.1170
     30 C          63.2704   92.9897    1.9304 C.3     1  UNL1        0.1099
     31 N          61.7795   92.8251    1.9223 N.pl3   1  UNL1       -0.3045
     32 C          60.9838   93.2572    0.7264 C.3     1  UNL1        0.1099
     33 C          61.6790   93.8537   -0.4613 C.3     1  UNL1        0.1170
     34 O          64.9328   95.1626   -0.7410 O.2     1  UNL1       -0.1519
     35 S          63.8651   94.6149   -1.6410 S.O2    1  UNL1        0.1065
     36 O          62.7974   94.0672   -2.5410 O.2     1  UNL1       -0.1519
     37 C          64.5603   95.2115   -2.8287 C.3     1  UNL1        0.4617
     38 F          65.6875   96.1808   -2.6293 F       1  UNL1       -0.1713
     39 F          64.1283   94.8388   -4.2160 F       1  UNL1       -0.1713
@<TRIPOS>BOND
     1    34    35    2
     2    35    36    2
     3    35    37    1
     4    37    38    1
     5    37    39    1
     6    35    28    1
     7    28    29    1
     8    29    30    1
     9    30    31    1
    10    31    22    1
    11    22    23   ar
    12    23    24   ar
    13    24    25   ar
    14    25    21    1
    15    21     1    1
    16     2     1    1
    17     2     3    1
    18     3     4    1
    19     4     5    1
    20     5    15    1
    21    15    16    1
    22    16    17   ar
    23    17    18   ar
    24    18    19   ar
    25    19    20   ar
    26     5     7    1
    27     7     8   ar
    28     8     9   ar
    29     9    10   ar
    30    10    11    1
    31    10    12   ar
    32    12    13   ar
    33    13    14    1
    34     5     6    1
    35    25    26   ar
    36    26    27   ar
    37    31    32    1
    38    32    33    1
    39    33    28    1
    40    27    22   ar
    41     6     2    1
    42    20    16   ar
    43    13     7   ar
@<TRIPOS>MOLECULE
*****
 39 43 0 0 0
SMALL
GASTEIGER

@<TRIPOS>ATOM
      1 C          59.8031   88.5684    8.9187 C.3     1  UNL1        0.2374
      2 C          60.5211   87.4744    9.6520 C.3     1  UNL1        0.1909
      3 C          60.3069   87.0852   11.0847 C.3     1  UNL1        0.1783
      4 O          61.2329   85.9478   11.3994 O.3     1  UNL1       -0.3267
      5 C          62.0193   85.6341   10.1612 C.3     1  UNL1        0.2296
      6 O          61.5795   86.5776    9.0812 O.3     1  UNL1       -0.3255
      7 C          62.6512   84.5790   11.0199 C.ar    1  UNL1        0.0409
      8 C          62.5970   83.1396   10.6011 C.ar    1  UNL1        0.0022
      9 C          63.2289   82.0844   11.4598 C.ar    1  UNL1        0.0113
     10 C          63.9150   82.4685   12.7371 C.ar    1  UNL1        0.0585
     11 CL         64.5469   81.4133   13.5958 Cl      1  UNL1       -0.0822
     12 C          63.9692   83.9080   13.1559 C.ar    1  UNL1        0.0226
     13 C          63.3374   84.9631   12.2972 C.ar    1  UNL1        0.0591
     14 CL         63.3916   86.4024   12.7159 Cl      1  UNL1       -0.0824
     15 C          62.9379   85.0999    9.1025 C.3     1  UNL1        0.1682
     16 N          62.4150   84.8288    7.7229 N.ar    1  UNL1       -0.3025
     17 C          63.2438   84.5316    6.5086 C.ar    1  UNL1        0.0982
     18 C          62.3126   84.3264    5.3508 C.ar    1  UNL1        0.1193
     19 N          60.9082   84.4967    5.8495 N.ar    1  UNL1       -0.2223
     20 C          60.9716   84.8072    7.3157 C.ar    1  UNL1        0.1788
     21 O          59.9501   89.9927    9.3655 O.3     1  UNL1       -0.4727
     22 C          63.4558   91.2006   11.9152 C.ar    1  UNL1        0.0481
     23 C          63.5271   91.3470   10.4241 C.ar    1  UNL1        0.0176
     24 C          62.3586   90.9444    9.5742 C.ar    1  UNL1        0.0382
     25 C          61.1187   90.3953   10.2154 C.ar    1  UNL1        0.1388
     26 C          61.0473   90.2489   11.7065 C.ar    1  UNL1        0.0382
     27 C          62.2159   90.6515   12.5564 C.ar    1  UNL1        0.0176
     28 N          66.9615   92.4084   14.4650 N.3     1  UNL1       -0.1508
     29 C          66.6537   93.1642   13.2065 C.3     1  UNL1        0.1170
     30 C          65.4851   92.7616   12.3566 C.3     1  UNL1        0.1099
     31 N          64.6244   91.6032   12.7652 N.pl3   1  UNL1       -0.3045
     32 C          64.9321   90.8473   14.0237 C.3     1  UNL1        0.1099
     33 C          66.1007   91.2500   14.8736 C.3     1  UNL1        0.1170
     34 O          67.2086   93.0297   16.4782 O.2     1  UNL1       -0.1519
     35 S          68.1300   92.8110   15.3149 S.O2    1  UNL1        0.1065
     36 O          69.0515   92.5923   14.1517 O.2     1  UNL1       -0.1519
     37 C          69.2986   93.2136   16.1649 C.3     1  UNL1        0.4617
     38 F          69.7994   94.6271   16.1303 F       1  UNL1       -0.1713
     39 F          69.9663   92.2028   17.0493 F       1  UNL1       -0.1713
@<TRIPOS>BOND
     1    34    35    2
     2    35    36    2
     3    35    37    1
     4    37    38    1
     5    37    39    1
     6    35    28    1
     7    28    29    1
     8    29    30    1
     9    30    31    1
    10    31    22    1
    11    22    23   ar
    12    23    24   ar
    13    24    25   ar
    14    25    21    1
    15    21     1    1
    16     2     1    1
    17     2     3    1
    18     3     4    1
    19     4     5    1
    20     5    15    1
    21    15    16    1
    22    16    17   ar
    23    17    18   ar
    24    18    19   ar
    25    19    20   ar
    26     5     7    1
    27     7     8   ar
    28     8     9   ar
    29     9    10   ar
    30    10    11    1
    31    10    12   ar
    32    12    13   ar
    33    13    14    1
    34     5     6    1
    35    25    26   ar
    36    26    27   ar
    37    31    32    1
    38    32    33    1
    39    33    28    1
    40    27    22   ar
    41     6     2    1
    42    20    16   ar
    43    13     7   ar
@<TRIPOS>MOLECULE
*****
 39 43 0 0 0
SMALL
GASTEIGER

@<TRIPOS>ATOM
      1 C          63.5456   91.9931   10.0687 C.3     1  UNL1        0.2374
      2 C          64.6104   92.3084   11.0770 C.3     1  UNL1        0.1909
      3 C          65.4576   93.5459   11.1072 C.3     1  UNL1        0.1783
      4 O          66.3858   93.4438   12.2811 O.3     1  UNL1       -0.3267
      5 C          66.1123   92.1432   12.9765 C.3     1  UNL1        0.2296
      6 O          65.0151   91.4414   12.2324 O.3     1  UNL1       -0.3255
      7 C          67.1998   92.5927   13.9066 C.ar    1  UNL1        0.0409
      8 C          66.8671   93.4538   15.0889 C.ar    1  UNL1        0.0022
      9 C          67.9546   93.9034   16.0191 C.ar    1  UNL1        0.0113
     10 C          69.3748   93.4918   15.7670 C.ar    1  UNL1        0.0585
     11 CL         70.4624   93.9413   16.6971 Cl      1  UNL1       -0.0822
     12 C          69.7075   92.6307   14.5846 C.ar    1  UNL1        0.0226
     13 C          68.6200   92.1812   13.6545 C.ar    1  UNL1        0.0591
     14 CL         68.9527   91.3201   12.4722 Cl      1  UNL1       -0.0824
     15 C          66.0661   90.9365   13.8664 C.3     1  UNL1        0.1682
     16 N          64.9671   90.7913   14.8769 N.ar    1  UNL1       -0.3025
     17 C          64.2223   89.5287   15.1942 C.ar    1  UNL1        0.0982
     18 C          63.2149   89.8403   16.2609 C.ar    1  UNL1        0.1193
     19 N          63.3371   91.2957   16.6029 N.ar    1  UNL1       -0.2223
     20 C          64.4201   91.8834   15.7475 C.ar    1  UNL1        0.1788
     21 O          62.3041   91.2653   10.4916 O.3     1  UNL1       -0.4727
     22 C          62.4552   86.8416   11.3026 C.ar    1  UNL1        0.0481
     23 C          61.8135   87.3523   10.0467 C.ar    1  UNL1        0.0176
     24 C          61.7632   88.8269    9.7764 C.ar    1  UNL1        0.0382
     25 C          62.3545   89.7907   10.7619 C.ar    1  UNL1        0.1388
     26 C          62.9961   89.2800   12.0178 C.ar    1  UNL1        0.0382
     27 C          63.0465   87.8054   12.2882 C.ar    1  UNL1        0.0176
     28 N          62.6062   82.4179   12.1137 N.3     1  UNL1       -0.1508
     29 C          62.7681   82.9295   10.7130 C.3     1  UNL1        0.1170
     30 C          62.7177   84.4041   10.4427 C.3     1  UNL1        0.1099
     31 N          62.5055   85.3670   11.5730 N.pl3   1  UNL1       -0.3045
     32 C          62.3437   84.8554   12.9737 C.3     1  UNL1        0.1099
     33 C          62.3941   83.3808   13.2440 C.3     1  UNL1        0.1170
     34 O          62.2497   81.1902   13.8066 O.2     1  UNL1       -0.1519
     35 S          62.6566   80.9433   12.3841 S.O2    1  UNL1        0.1065
     36 O          63.0635   80.6964   10.9616 O.2     1  UNL1       -0.1519
     37 C          62.7070   79.4687   12.6544 C.3     1  UNL1        0.4617
     38 F          62.6990   78.4962   11.5125 F       1  UNL1       -0.1713
     39 F          62.7653   78.9667   14.0667 F       1  UNL1       -0.1713
@<TRIPOS>BOND
     1    34    35    2
     2    35    36    2
     3    35    37    1
     4    37    38    1
     5    37    39    1
     6    35    28    1
     7    28    29    1
     8    29    30    1
     9    30    31    1
    10    31    22    1
    11    22    23   ar
    12    23    24   ar
    13    24    25   ar
    14    25    21    1
    15    21     1    1
    16     2     1    1
    17     2     3    1
    18     3     4    1
    19     4     5    1
    20     5    15    1
    21    15    16    1
    22    16    17   ar
    23    17    18   ar
    24    18    19   ar
    25    19    20   ar
    26     5     7    1
    27     7     8   ar
    28     8     9   ar
    29     9    10   ar
    30    10    11    1
    31    10    12   ar
    32    12    13   ar
    33    13    14    1
    34     5     6    1
    35    25    26   ar
    36    26    27   ar
    37    31    32    1
    38    32    33    1
    39    33    28    1
    40    27    22   ar
    41     6     2    1
    42    20    16   ar
    43    13     7   ar
@<TRIPOS>MOLECULE
*****
 39 43 0 0 0
SMALL
GASTEIGER

@<TRIPOS>ATOM
      1 C          59.0716   88.8601    6.9683 C.3     1  UNL1        0.2374
      2 C          59.8732   88.5059    8.1857 C.3     1  UNL1        0.1909
      3 C          59.7118   89.1033    9.5521 C.3     1  UNL1        0.1783
      4 O          60.7158   88.4588   10.4613 O.3     1  UNL1       -0.3267
      5 C          61.4976   87.4630    9.6568 C.3     1  UNL1        0.2296
      6 O          60.9769   87.4921    8.2504 O.3     1  UNL1       -0.3255
      7 C          62.2130   87.2150   10.9516 C.ar    1  UNL1        0.0409
      8 C          62.2513   85.8333   11.5346 C.ar    1  UNL1        0.0022
      9 C          62.9667   85.5852   12.8294 C.ar    1  UNL1        0.0113
     10 C          63.6440   86.7186   13.5412 C.ar    1  UNL1        0.0585
     11 CL         64.3594   86.4705   14.8361 Cl      1  UNL1       -0.0822
     12 C          63.6057   88.1002   12.9583 C.ar    1  UNL1        0.0226
     13 C          62.8903   88.3483   11.6635 C.ar    1  UNL1        0.0591
     14 CL         62.8521   89.7299   11.0805 Cl      1  UNL1       -0.0824
     15 C          62.4290   86.4154    9.1230 C.3     1  UNL1        0.1682
     16 N          62.0279   85.5891    7.9370 N.ar    1  UNL1       -0.3025
     17 C          62.9614   84.9143    6.9763 C.ar    1  UNL1        0.0982
     18 C          62.1333   84.2008    5.9492 C.ar    1  UNL1        0.1193
     19 N          60.6879   84.4347    6.2751 N.ar    1  UNL1       -0.2223
     20 C          60.6228   85.2927    7.5037 C.ar    1  UNL1        0.1788
     21 O          58.7557   90.2957    6.6698 O.3     1  UNL1       -0.4727
     22 C          60.7211   92.3542    3.1841 C.ar    1  UNL1        0.0481
     23 C          61.5078   91.3990    4.0318 C.ar    1  UNL1        0.0176
     24 C          60.8526   90.7128    5.1937 C.ar    1  UNL1        0.0382
     25 C          59.4108   90.9819    5.5079 C.ar    1  UNL1        0.1388
     26 C          58.6242   91.9371    4.6603 C.ar    1  UNL1        0.0382
     27 C          59.2793   92.6233    3.4984 C.ar    1  UNL1        0.0176
     28 N          62.6864   94.4128   -0.3015 N.3     1  UNL1       -0.1508
     29 C          61.1903   94.3599   -0.2080 C.3     1  UNL1        0.1170
     30 C          60.5352   93.6737    0.9538 C.3     1  UNL1        0.1099
     31 N          61.3762   93.0404    2.0223 N.pl3   1  UNL1       -0.3045
     32 C          62.8723   93.0933    1.9288 C.3     1  UNL1        0.1099
     33 C          63.5274   93.7794    0.7669 C.3     1  UNL1        0.1170
     34 O          64.2351   93.9105   -1.6615 O.2     1  UNL1       -0.1519
     35 S          63.3416   95.0990   -1.4634 S.O2    1  UNL1        0.1065
     36 O          62.4480   96.2874   -1.2653 O.2     1  UNL1       -0.1519
     37 C          63.9967   95.7851   -2.6253 C.3     1  UNL1        0.4617
     38 F          63.1704   96.2363   -3.7930 F       1  UNL1       -0.1713
     39 F          65.4781   96.0201   -2.6195 F       1  UNL1       -0.1713
@<TRIPOS>BOND
     1    34    35    2
     2    35    36    2
     3    35    37    1
     4    37    38    1
     5    37    39    1
     6    35    28    1
     7    28    29    1
     8    29    30    1
     9    30    31    1
    10    31    22    1
    11    22    23   ar
    12    23    24   ar
    13    24    25   ar
    14    25    21    1
    15    21     1    1
    16     2     1    1
    17     2     3    1
    18     3     4    1
    19     4     5    1
    20     5    15    1
    21    15    16    1
    22    16    17   ar
    23    17    18   ar
    24    18    19   ar
    25    19    20   ar
    26     5     7    1
    27     7     8   ar
    28     8     9   ar
    29     9    10   ar
    30    10    11    1
    31    10    12   ar
    32    12    13   ar
    33    13    14    1
    34     5     6    1
    35    25    26   ar
    36    26    27   ar
    37    31    32    1
    38    32    33    1
    39    33    28    1
    40    27    22   ar
    41     6     2    1
    42    20    16   ar
    43    13     7   ar
@<TRIPOS>MOLECULE
*****
 39 43 0 0 0
SMALL
GASTEIGER

@<TRIPOS>ATOM
      1 C          63.1233   91.6517    9.7699 C.3     1  UNL1        0.2374
      2 C          64.1367   91.8839   10.8512 C.3     1  UNL1        0.1909
      3 C          63.9857   91.5104   12.2961 C.3     1  UNL1        0.1783
      4 O          65.2346   91.9261   13.0153 O.3     1  UNL1       -0.3267
      5 C          66.1576   92.5565   12.0149 C.3     1  UNL1        0.2296
      6 O          65.4790   92.5305   10.6774 O.3     1  UNL1       -0.3255
      7 C          67.0689   92.7216   13.1948 C.ar    1  UNL1        0.0409
      8 C          66.6447   93.5696   14.3572 C.ar    1  UNL1        0.0022
      9 C          67.5561   93.7346   15.5371 C.ar    1  UNL1        0.0113
     10 C          68.8915   93.0518   15.5547 C.ar    1  UNL1        0.0585
     11 CL         69.8028   93.2169   16.7346 Cl      1  UNL1       -0.0822
     12 C          69.3156   92.2038   14.3923 C.ar    1  UNL1        0.0226
     13 C          68.4043   92.0387   13.2124 C.ar    1  UNL1        0.0591
     14 CL         68.8284   91.1908   12.0500 Cl      1  UNL1       -0.0824
     15 C          67.2710   93.2215   11.2611 C.3     1  UNL1        0.1682
     16 N          67.0431   94.5507   10.6044 N.ar    1  UNL1       -0.3025
     17 C          66.2823   95.7038   11.1885 C.ar    1  UNL1        0.0982
     18 C          66.3050   96.8258   10.1933 C.ar    1  UNL1        0.1193
     19 N          67.0799   96.3661    8.9941 N.ar    1  UNL1       -0.2223
     20 C          67.5361   94.9600    9.2481 C.ar    1  UNL1        0.1788
     21 O          61.8876   90.8522   10.0593 O.3     1  UNL1       -0.4727
     22 C          62.2331   86.5226   11.2363 C.ar    1  UNL1        0.0481
     23 C          61.5087   86.9025    9.9790 C.ar    1  UNL1        0.0176
     24 C          61.3936   88.3457    9.5867 C.ar    1  UNL1        0.0382
     25 C          62.0027   89.4090   10.4517 C.ar    1  UNL1        0.1388
     26 C          62.7271   89.0291   11.7090 C.ar    1  UNL1        0.0382
     27 C          62.8423   87.5859   12.1013 C.ar    1  UNL1        0.0176
     28 N          62.5787   82.1930   12.4133 N.3     1  UNL1       -0.1508
     29 C          62.3607   83.2408   13.4642 C.3     1  UNL1        0.1170
     30 C          62.2455   84.6840   13.0719 C.3     1  UNL1        0.1099
     31 N          62.3483   85.0794   11.6286 N.pl3   1  UNL1       -0.3045
     32 C          62.5663   84.0316   10.5777 C.3     1  UNL1        0.1099
     33 C          62.6815   82.5884   10.9700 C.3     1  UNL1        0.1170
     34 O          62.9230   80.3780   11.3706 O.2     1  UNL1       -0.1519
     35 S          62.6939   80.7498   12.8056 S.O2    1  UNL1        0.1065
     36 O          62.4647   81.1216   14.2406 O.2     1  UNL1       -0.1519
     37 C          62.8090   79.3066   13.1979 C.3     1  UNL1        0.4617
     38 F          62.7871   78.2390   12.1445 F       1  UNL1       -0.1713
     39 F          62.9462   78.9310   14.6436 F       1  UNL1       -0.1713
@<TRIPOS>BOND
     1    34    35    2
     2    35    36    2
     3    35    37    1
     4    37    38    1
     5    37    39    1
     6    35    28    1
     7    28    29    1
     8    29    30    1
     9    30    31    1
    10    31    22    1
    11    22    23   ar
    12    23    24   ar
    13    24    25   ar
    14    25    21    1
    15    21     1    1
    16     2     1    1
    17     2     3    1
    18     3     4    1
    19     4     5    1
    20     5    15    1
    21    15    16    1
    22    16    17   ar
    23    17    18   ar
    24    18    19   ar
    25    19    20   ar
    26     5     7    1
    27     7     8   ar
    28     8     9   ar
    29     9    10   ar
    30    10    11    1
    31    10    12   ar
    32    12    13   ar
    33    13    14    1
    34     5     6    1
    35    25    26   ar
    36    26    27   ar
    37    31    32    1
    38    32    33    1
    39    33    28    1
    40    27    22   ar
    41     6     2    1
    42    20    16   ar
    43    13     7   ar
@<TRIPOS>MOLECULE
*****
 39 43 0 0 0
SMALL
GASTEIGER

@<TRIPOS>ATOM
      1 C          59.0909   88.9382    6.8649 C.3     1  UNL1        0.2374
      2 C          59.8215   89.1272    8.1612 C.3     1  UNL1        0.1909
      3 C          60.4712   90.3951    8.6305 C.3     1  UNL1        0.1783
      4 O          61.0820   90.1329    9.9752 O.3     1  UNL1       -0.3267
      5 C          60.8097   88.7029   10.3370 C.3     1  UNL1        0.2296
      6 O          60.0307   88.0813    9.2160 O.3     1  UNL1       -0.3255
      7 C          61.5648   89.0403   11.5884 C.ar    1  UNL1        0.0409
      8 C          63.0635   88.9774   11.6000 C.ar    1  UNL1        0.0022
      9 C          63.8186   89.3148   12.8514 C.ar    1  UNL1        0.0113
     10 C          63.0751   89.7151   14.0911 C.ar    1  UNL1        0.0585
     11 CL         63.8302   90.0525   15.3425 Cl      1  UNL1       -0.0822
     12 C          61.5764   89.7780   14.0795 C.ar    1  UNL1        0.0226
     13 C          60.8213   89.4406   12.8282 C.ar    1  UNL1        0.0591
     14 CL         59.3227   89.5035   12.8165 Cl      1  UNL1       -0.0824
     15 C          60.6953   87.3434   10.9605 C.3     1  UNL1        0.1682
     16 N          61.6452   86.2531   10.5620 N.ar    1  UNL1       -0.3025
     17 C          62.2177   86.0396    9.1922 C.ar    1  UNL1        0.0982
     18 C          63.1158   84.8394    9.2470 C.ar    1  UNL1        0.1193
     19 N          63.0983   84.3111   10.6508 N.ar    1  UNL1       -0.2223
     20 C          62.1894   85.1848   11.4635 C.ar    1  UNL1        0.1788
     21 O          58.5234   90.1249    6.1439 O.3     1  UNL1       -0.4727
     22 C          61.0532   92.3800    3.1835 C.ar    1  UNL1        0.0481
     23 C          59.6042   92.7293    3.3513 C.ar    1  UNL1        0.0176
     24 C          58.7609   91.9776    4.3381 C.ar    1  UNL1        0.0382
     25 C          59.3667   90.8766    5.1571 C.ar    1  UNL1        0.1388
     26 C          60.8157   90.5273    4.9893 C.ar    1  UNL1        0.0382
     27 C          61.6590   91.2790    4.0024 C.ar    1  UNL1        0.0176
     28 N          63.5830   94.6352    0.2230 N.3     1  UNL1       -0.1508
     29 C          64.1889   93.5344    1.0422 C.3     1  UNL1        0.1170
     30 C          63.3456   92.7827    2.0290 C.3     1  UNL1        0.1099
     31 N          61.8965   93.1318    2.1966 N.pl3   1  UNL1       -0.3045
     32 C          61.2906   94.2325    1.3774 C.3     1  UNL1        0.1099
     33 C          62.1339   94.9843    0.3906 C.3     1  UNL1        0.1170
     34 O          64.1174   94.3585   -1.8112 O.2     1  UNL1       -0.1519
     35 S          64.4263   95.3869   -0.7638 S.O2    1  UNL1        0.1065
     36 O          64.7351   96.4154    0.2835 O.2     1  UNL1       -0.1519
     37 C          65.2695   96.1386   -1.7507 C.3     1  UNL1        0.4617
     38 F          66.5120   96.8431   -1.2924 F       1  UNL1       -0.1713
     39 F          64.8704   96.1859   -3.1958 F       1  UNL1       -0.1713
@<TRIPOS>BOND
     1    34    35    2
     2    35    36    2
     3    35    37    1
     4    37    38    1
     5    37    39    1
     6    35    28    1
     7    28    29    1
     8    29    30    1
     9    30    31    1
    10    31    22    1
    11    22    23   ar
    12    23    24   ar
    13    24    25   ar
    14    25    21    1
    15    21     1    1
    16     2     1    1
    17     2     3    1
    18     3     4    1
    19     4     5    1
    20     5    15    1
    21    15    16    1
    22    16    17   ar
    23    17    18   ar
    24    18    19   ar
    25    19    20   ar
    26     5     7    1
    27     7     8   ar
    28     8     9   ar
    29     9    10   ar
    30    10    11    1
    31    10    12   ar
    32    12    13   ar
    33    13    14    1
    34     5     6    1
    35    25    26   ar
    36    26    27   ar
    37    31    32    1
    38    32    33    1
    39    33    28    1
    40    27    22   ar
    41     6     2    1
    42    20    16   ar
    43    13     7   ar
