@<TRIPOS>MOLECULE
*****
 29 31 0 0 0
SMALL
GASTEIGER

@<TRIPOS>ATOM
      1 N          65.3202   90.8137   13.6931 N.am    1  UNL1       -0.2681
      2 C          64.7661   91.4123   12.4343 C.2     1  UNL1        0.3077
      3 O          65.1898   92.7864   12.0075 O.2     1  UNL1       -0.2522
      4 N          63.7883   90.6366   11.6021 N.am    1  UNL1       -0.2640
      5 C          63.3646   89.2625   12.0289 C.3     1  UNL1        0.0953
      6 C          62.3868   88.4868   11.1969 C.3     1  UNL1        0.0260
      7 C          61.8328   89.0854    9.9380 C.3     1  UNL1        0.0257
      8 C          62.2565   90.4596    9.5113 C.3     1  UNL1        0.0260
      9 C          63.2342   91.2352   10.3433 C.3     1  UNL1        0.0953
     10 H          65.0421   89.9118   13.9732 H       1  UNL1        0.1564
     11 C          65.8648   92.1830   15.8329 C.ar    1  UNL1        0.0275
     12 C          66.8426   92.9585   16.6649 C.ar    1  UNL1        0.0024
     13 C          68.2536   93.1405   16.1893 C.ar    1  UNL1        0.0001
     14 C          68.6867   92.5469   14.8817 C.ar    1  UNL1        0.0013
     15 C          67.7089   91.7713   14.0496 C.ar    1  UNL1        0.0147
     16 C          66.2980   91.5893   14.5252 C.ar    1  UNL1        0.0526
     17 O          63.7785   93.0908   17.0869 O.co2   1  UNL1       -0.5446
     18 C          64.4539   92.0010   16.3084 C.2     1  UNL1        0.0741
     19 O          63.7185   90.7293   16.0055 O.co2   1  UNL1       -0.5446
     20 C          60.8549   88.3098    9.1059 C.ar    1  UNL1       -0.0185
     21 C          59.7809   89.0294    8.3452 C.ar    1  UNL1       -0.0043
     22 C          58.8031   88.2539    7.5132 C.ar    1  UNL1       -0.0003
     23 C          58.8994   86.7587    7.4417 C.ar    1  UNL1       -0.0001
     24 C          59.9734   86.0390    8.2024 C.ar    1  UNL1        0.0035
     25 C          60.9512   86.8146    9.0345 C.ar    1  UNL1        0.0675
     26 C          62.0252   86.0950    9.7952 C.3     1  UNL1        0.4183
     27 F          63.0992   85.3753   10.5558 F       1  UNL1       -0.1659
     28 F          61.0570   85.8276   10.9092 F       1  UNL1       -0.1659
     29 F          62.9934   86.3623    8.6811 F       1  UNL1       -0.1659
@<TRIPOS>UNITY_ATOM_ATTR
17 1
charge -1
@<TRIPOS>BOND
     1    17    18   ar
     2    18    19   ar
     3    18    11    1
     4    11    12   ar
     5    12    13   ar
     6    13    14   ar
     7    14    15   ar
     8    15    16   ar
     9    16     1    1
    10     1     2   am
    11     2     3    2
    12     2     4   am
    13     4     5    1
    14     5     6    1
    15     6     7    1
    16     7    20    1
    17    20    21   ar
    18    21    22   ar
    19    22    23   ar
    20    23    24   ar
    21    24    25   ar
    22    25    26    1
    23    26    27    1
    24    26    28    1
    25    26    29    1
    26     7     8    1
    27     8     9    1
    28    16    11   ar
    29     9     4    1
    30    25    20   ar
    31     1    10    1
@<TRIPOS>MOLECULE
*****
 29 31 0 0 0
SMALL
GASTEIGER

@<TRIPOS>ATOM
      1 N          61.7710   88.2497   10.4602 N.am    1  UNL1       -0.2681
      2 C          62.3579   89.6128   10.2425 C.2     1  UNL1        0.3077
      3 O          62.0166   90.3873    9.0040 O.2     1  UNL1       -0.2522
      4 N          63.2860   90.2016   11.2633 N.am    1  UNL1       -0.2640
      5 C          63.6273   89.4271   12.5018 C.3     1  UNL1        0.0953
      6 C          64.5554   90.0158   13.5225 C.3     1  UNL1        0.0260
      7 C          65.1422   91.3789   13.3049 C.3     1  UNL1        0.0257
      8 C          64.8010   92.1534   12.0664 C.3     1  UNL1        0.0260
      9 C          63.8729   91.5647   11.0456 C.3     1  UNL1        0.0953
     10 H          61.9950   87.7414   11.2730 H       1  UNL1        0.1564
     11 C          61.1542   86.3299    8.8219 C.ar    1  UNL1        0.0275
     12 C          60.2261   85.7412    7.8011 C.ar    1  UNL1        0.0024
     13 C          58.9866   86.4836    7.3978 C.ar    1  UNL1        0.0001
     14 C          58.6753   87.8146    8.0153 C.ar    1  UNL1        0.0013
     15 C          59.6034   88.4033    9.0360 C.ar    1  UNL1        0.0147
     16 C          60.8429   87.6609    9.4393 C.ar    1  UNL1        0.0526
     17 O          62.6237   85.2388   10.6658 O.co2   1  UNL1       -0.5446
     18 C          62.3936   85.5875    9.2252 C.2     1  UNL1        0.0741
     19 O          63.4030   85.1938    8.1878 O.co2   1  UNL1       -0.5446
     20 C          66.0704   91.9677   14.3257 C.ar    1  UNL1       -0.0185
     21 C          65.6198   92.1228   15.7480 C.ar    1  UNL1       -0.0043
     22 C          66.5478   92.7116   16.7688 C.ar    1  UNL1       -0.0003
     23 C          67.9265   93.1451   16.3673 C.ar    1  UNL1       -0.0001
     24 C          68.3771   92.9899   14.9450 C.ar    1  UNL1        0.0035
     25 C          67.4491   92.4012   13.9242 C.ar    1  UNL1        0.0675
     26 C          67.8997   92.2461   12.5019 C.3     1  UNL1        0.4183
     27 F          68.3503   92.0909   11.0796 F       1  UNL1       -0.1659
     28 F          68.6406   90.9958   12.8731 F       1  UNL1       -0.1659
     29 F          67.1587   93.4963   12.1308 F       1  UNL1       -0.1659
@<TRIPOS>UNITY_ATOM_ATTR
17 1
charge -1
@<TRIPOS>BOND
     1    17    18   ar
     2    18    19   ar
     3    18    11    1
     4    11    12   ar
     5    12    13   ar
     6    13    14   ar
     7    14    15   ar
     8    15    16   ar
     9    16     1    1
    10     1     2   am
    11     2     3    2
    12     2     4   am
    13     4     5    1
    14     5     6    1
    15     6     7    1
    16     7    20    1
    17    20    21   ar
    18    21    22   ar
    19    22    23   ar
    20    23    24   ar
    21    24    25   ar
    22    25    26    1
    23    26    27    1
    24    26    28    1
    25    26    29    1
    26     7     8    1
    27     8     9    1
    28    16    11   ar
    29     9     4    1
    30    25    20   ar
    31     1    10    1
@<TRIPOS>MOLECULE
*****
 29 31 0 0 0
SMALL
GASTEIGER

@<TRIPOS>ATOM
      1 N          64.4812   88.0290   14.4333 N.am    1  UNL1       -0.2681
      2 C          63.5725   87.6702   13.2951 C.2     1  UNL1        0.3077
      3 O          62.7943   88.7414   12.5904 O.2     1  UNL1       -0.2522
      4 N          63.4421   86.2400   12.8617 N.am    1  UNL1       -0.2640
      5 C          64.2204   85.1688   13.5664 C.3     1  UNL1        0.0953
      6 C          64.0900   83.7387   13.1330 C.3     1  UNL1        0.0260
      7 C          63.1814   83.3799   11.9948 C.3     1  UNL1        0.0257
      8 C          62.4031   84.4512   11.2900 C.3     1  UNL1        0.0260
      9 C          62.5335   85.8812   11.7235 C.3     1  UNL1        0.0953
     10 H          64.9920   87.3258   14.8959 H       1  UNL1        0.1564
     11 C          63.7127   90.0033   15.9372 C.ar    1  UNL1        0.0275
     12 C          63.8431   91.4333   16.3706 C.ar    1  UNL1        0.0024
     13 C          64.8725   92.3192   15.7337 C.ar    1  UNL1        0.0001
     14 C          65.7715   91.7749   14.6634 C.ar    1  UNL1        0.0013
     15 C          65.6410   90.3449   14.2299 C.ar    1  UNL1        0.0147
     16 C          64.6116   89.4591   14.8668 C.ar    1  UNL1        0.0526
     17 O          63.1037   88.0662   17.5578 O.co2   1  UNL1       -0.5446
     18 C          62.6833   89.1175   16.5740 C.2     1  UNL1        0.0741
     19 O          61.2334   89.2830   16.2272 O.co2   1  UNL1       -0.5446
     20 C          63.0509   81.9498   11.5613 C.ar    1  UNL1       -0.0185
     21 C          63.3530   81.5655   10.1432 C.ar    1  UNL1       -0.0043
     22 C          63.2226   80.1355    9.7097 C.ar    1  UNL1       -0.0003
     23 C          62.7901   79.0898   10.6943 C.ar    1  UNL1       -0.0001
     24 C          62.4881   79.4741   12.1124 C.ar    1  UNL1        0.0035
     25 C          62.6185   80.9041   12.5459 C.ar    1  UNL1        0.0675
     26 C          62.3164   81.2885   13.9640 C.3     1  UNL1        0.4183
     27 F          62.0143   81.6728   15.3821 F       1  UNL1       -0.1659
     28 F          63.7545   81.0693   14.3298 F       1  UNL1       -0.1659
     29 F          60.8783   81.5077   13.5982 F       1  UNL1       -0.1659
@<TRIPOS>UNITY_ATOM_ATTR
17 1
charge -1
@<TRIPOS>BOND
     1    17    18   ar
     2    18    19   ar
     3    18    11    1
     4    11    12   ar
     5    12    13   ar
     6    13    14   ar
     7    14    15   ar
     8    15    16   ar
     9    16     1    1
    10     1     2   am
    11     2     3    2
    12     2     4   am
    13     4     5    1
    14     5     6    1
    15     6     7    1
    16     7    20    1
    17    20    21   ar
    18    21    22   ar
    19    22    23   ar
    20    23    24   ar
    21    24    25   ar
    22    25    26    1
    23    26    27    1
    24    26    28    1
    25    26    29    1
    26     7     8    1
    27     8     9    1
    28    16    11   ar
    29     9     4    1
    30    25    20   ar
    31     1    10    1
@<TRIPOS>MOLECULE
*****
 29 31 0 0 0
SMALL
GASTEIGER

@<TRIPOS>ATOM
      1 N          65.8226   90.9345   13.9058 N.am    1  UNL1       -0.2681
      2 C          65.1859   91.4654   12.6557 C.2     1  UNL1        0.3077
      3 O          65.5298   92.8403   12.1644 O.2     1  UNL1       -0.2522
      4 N          64.2052   90.6213   11.8968 N.am    1  UNL1       -0.2640
      5 C          63.8613   89.2464   12.3880 C.3     1  UNL1        0.0953
      6 C          62.8807   88.4023   11.6292 C.3     1  UNL1        0.0260
      7 C          62.2440   88.9331   10.3791 C.3     1  UNL1        0.0257
      8 C          62.5879   90.3080    9.8878 C.3     1  UNL1        0.0260
      9 C          63.5686   91.1521   10.6467 C.3     1  UNL1        0.0953
     10 H          65.5969   90.0321   14.2282 H       1  UNL1        0.1564
     11 C          66.3802   92.4666   15.9287 C.ar    1  UNL1        0.0275
     12 C          67.3609   93.3106   16.6875 C.ar    1  UNL1        0.0024
     13 C          68.7646   93.4667   16.1823 C.ar    1  UNL1        0.0001
     14 C          69.1877   92.7788   14.9184 C.ar    1  UNL1        0.0013
     15 C          68.2070   91.9347   14.1595 C.ar    1  UNL1        0.0147
     16 C          66.8033   91.7786   14.6647 C.ar    1  UNL1        0.0526
     17 O          64.4700   93.2017   17.5289 O.co2   1  UNL1       -0.5446
     18 C          64.9765   92.3105   16.4338 C.2     1  UNL1        0.0741
     19 O          64.0792   91.2632   15.8439 O.co2   1  UNL1       -0.5446
     20 C          61.2633   88.0890    9.6202 C.ar    1  UNL1       -0.0185
     21 C          61.7549   86.9938    8.7208 C.ar    1  UNL1       -0.0043
     22 C          60.7743   86.1497    7.9619 C.ar    1  UNL1       -0.0003
     23 C          59.3022   86.4009    8.1024 C.ar    1  UNL1       -0.0001
     24 C          58.8106   87.4961    9.0018 C.ar    1  UNL1        0.0035
     25 C          59.7912   88.3402    9.7607 C.ar    1  UNL1        0.0675
     26 C          59.2997   89.4354   10.6601 C.3     1  UNL1        0.4183
     27 F          58.8082   90.5306   11.5595 F       1  UNL1       -0.1659
     28 F          59.4257   90.4173    9.5332 F       1  UNL1       -0.1659
     29 F          59.1738   88.4534   11.7870 F       1  UNL1       -0.1659
@<TRIPOS>UNITY_ATOM_ATTR
17 1
charge -1
@<TRIPOS>BOND
     1    17    18   ar
     2    18    19   ar
     3    18    11    1
     4    11    12   ar
     5    12    13   ar
     6    13    14   ar
     7    14    15   ar
     8    15    16   ar
     9    16     1    1
    10     1     2   am
    11     2     3    2
    12     2     4   am
    13     4     5    1
    14     5     6    1
    15     6     7    1
    16     7    20    1
    17    20    21   ar
    18    21    22   ar
    19    22    23   ar
    20    23    24   ar
    21    24    25   ar
    22    25    26    1
    23    26    27    1
    24    26    28    1
    25    26    29    1
    26     7     8    1
    27     8     9    1
    28    16    11   ar
    29     9     4    1
    30    25    20   ar
    31     1    10    1
@<TRIPOS>MOLECULE
*****
 29 31 0 0 0
SMALL
GASTEIGER

@<TRIPOS>ATOM
      1 N          60.1551   94.0325    0.4240 N.am    1  UNL1       -0.2681
      2 C          59.1945   93.1278   -0.2893 C.2     1  UNL1        0.3077
      3 O          59.4768   91.6575   -0.3819 O.2     1  UNL1       -0.2522
      4 N          57.9516   93.6934   -0.9100 N.am    1  UNL1       -0.2640
      5 C          57.6693   95.1637   -0.8175 C.3     1  UNL1        0.0953
      6 C          56.4265   95.7293   -1.4381 C.3     1  UNL1        0.0260
      7 C          55.4659   94.8247   -2.1514 C.3     1  UNL1        0.0257
      8 C          55.7481   93.3544   -2.2440 C.3     1  UNL1        0.0260
      9 C          56.9910   92.7888   -1.6233 C.3     1  UNL1        0.0953
     10 H          59.9699   94.9975    0.4847 H       1  UNL1        0.1564
     11 C          62.7291   93.6809    0.3870 C.ar    1  UNL1        0.0275
     12 C          63.9719   93.1153    1.0078 C.ar    1  UNL1        0.0024
     13 C          63.8838   92.3356    2.2862 C.ar    1  UNL1        0.0001
     14 C          62.5528   92.1216    2.9439 C.ar    1  UNL1        0.0013
     15 C          61.3099   92.6872    2.3231 C.ar    1  UNL1        0.0147
     16 C          61.3981   93.4669    1.0447 C.ar    1  UNL1        0.0526
     17 O          62.0203   94.0319   -2.0877 O.co2   1  UNL1       -0.5446
     18 C          62.8172   94.4605   -0.8914 C.2     1  UNL1        0.0741
     19 O          63.7022   95.6688   -0.9735 O.co2   1  UNL1       -0.5446
     20 C          54.2229   95.3903   -2.7722 C.ar    1  UNL1       -0.0185
     21 C          52.9954   95.5997   -1.9358 C.ar    1  UNL1       -0.0043
     22 C          51.7525   96.1653   -2.5565 C.ar    1  UNL1       -0.0003
     23 C          51.7371   96.5215   -4.0135 C.ar    1  UNL1       -0.0001
     24 C          52.9646   96.3121   -4.8498 C.ar    1  UNL1        0.0035
     25 C          54.2075   95.7465   -4.2291 C.ar    1  UNL1        0.0675
     26 C          55.4350   95.5371   -5.0655 C.3     1  UNL1        0.4183
     27 F          56.6625   95.3277   -5.9018 F       1  UNL1       -0.1659
     28 F          54.8928   94.2182   -5.5310 F       1  UNL1       -0.1659
     29 F          55.9771   96.8560   -4.6000 F       1  UNL1       -0.1659
@<TRIPOS>UNITY_ATOM_ATTR
17 1
charge -1
@<TRIPOS>BOND
     1    17    18   ar
     2    18    19   ar
     3    18    11    1
     4    11    12   ar
     5    12    13   ar
     6    13    14   ar
     7    14    15   ar
     8    15    16   ar
     9    16     1    1
    10     1     2   am
    11     2     3    2
    12     2     4   am
    13     4     5    1
    14     5     6    1
    15     6     7    1
    16     7    20    1
    17    20    21   ar
    18    21    22   ar
    19    22    23   ar
    20    23    24   ar
    21    24    25   ar
    22    25    26    1
    23    26    27    1
    24    26    28    1
    25    26    29    1
    26     7     8    1
    27     8     9    1
    28    16    11   ar
    29     9     4    1
    30    25    20   ar
    31     1    10    1
@<TRIPOS>MOLECULE
*****
 29 31 0 0 0
SMALL
GASTEIGER

@<TRIPOS>ATOM
      1 N          60.6791   94.4731   -0.2697 N.am    1  UNL1       -0.2681
      2 C          59.6245   93.4827   -0.6656 C.2     1  UNL1        0.3077
      3 O          59.8790   92.0129   -0.5079 O.2     1  UNL1       -0.2522
      4 N          58.3153   93.9621   -1.2191 N.am    1  UNL1       -0.2640
      5 C          58.0608   95.4319   -1.3767 C.3     1  UNL1        0.0953
      6 C          56.7517   95.9113   -1.9302 C.3     1  UNL1        0.0260
      7 C          55.6971   94.9209   -2.3260 C.3     1  UNL1        0.0257
      8 C          55.9516   93.4510   -2.1683 C.3     1  UNL1        0.0260
      9 C          57.2607   92.9716   -1.6149 C.3     1  UNL1        0.0953
     10 H          60.5121   95.4378   -0.3732 H       1  UNL1        0.1564
     11 C          62.0740   93.5216    1.7049 C.ar    1  UNL1        0.0275
     12 C          63.3831   93.0423    2.2583 C.ar    1  UNL1        0.0024
     13 C          64.6066   93.0351    1.3906 C.ar    1  UNL1        0.0001
     14 C          64.5210   93.5072   -0.0305 C.ar    1  UNL1        0.0013
     15 C          63.2119   93.9865   -0.5840 C.ar    1  UNL1        0.0147
     16 C          61.9883   93.9938    0.2838 C.ar    1  UNL1        0.0526
     17 O          59.9282   94.7118    2.5589 O.co2   1  UNL1       -0.5446
     18 C          60.8504   93.5289    2.5726 C.2     1  UNL1        0.0741
     19 O          60.5491   92.3532    3.4541 O.co2   1  UNL1       -0.5446
     20 C          54.3879   95.4002   -2.8795 C.ar    1  UNL1       -0.0185
     21 C          53.2208   95.6181   -1.9628 C.ar    1  UNL1       -0.0043
     22 C          51.9117   96.0975   -2.5162 C.ar    1  UNL1       -0.0003
     23 C          51.7696   96.3589   -3.9864 C.ar    1  UNL1       -0.0001
     24 C          52.9367   96.1410   -4.9031 C.ar    1  UNL1        0.0035
     25 C          54.2459   95.6617   -4.3497 C.ar    1  UNL1        0.0675
     26 C          55.4129   95.4437   -5.2664 C.3     1  UNL1        0.4183
     27 F          56.5800   95.2258   -6.1831 F       1  UNL1       -0.1659
     28 F          54.9634   94.0324   -5.5032 F       1  UNL1       -0.1659
     29 F          55.8625   96.8551   -5.0296 F       1  UNL1       -0.1659
@<TRIPOS>UNITY_ATOM_ATTR
17 1
charge -1
@<TRIPOS>BOND
     1    17    18   ar
     2    18    19   ar
     3    18    11    1
     4    11    12   ar
     5    12    13   ar
     6    13    14   ar
     7    14    15   ar
     8    15    16   ar
     9    16     1    1
    10     1     2   am
    11     2     3    2
    12     2     4   am
    13     4     5    1
    14     5     6    1
    15     6     7    1
    16     7    20    1
    17    20    21   ar
    18    21    22   ar
    19    22    23   ar
    20    23    24   ar
    21    24    25   ar
    22    25    26    1
    23    26    27    1
    24    26    28    1
    25    26    29    1
    26     7     8    1
    27     8     9    1
    28    16    11   ar
    29     9     4    1
    30    25    20   ar
    31     1    10    1
