@<TRIPOS>MOLECULE
*****
 29 32 0 0 0
SMALL
GASTEIGER

@<TRIPOS>ATOM
      1 C          62.9364   89.9486   12.1526 C.2     1  UNL1        0.2527
      2 O          62.7857   89.2142   13.4517 O.2     1  UNL1       -0.2696
      3 N          63.9841   91.0124   12.0095 N.am    1  UNL1       -0.2551
      4 C          64.2513   91.8269   10.7786 C.3     1  UNL1        0.1032
      5 C          65.3809   92.7664   11.0806 C.3     1  UNL1        0.0495
      6 C          65.8119   92.5326   12.4982 C.ar    1  UNL1       -0.0071
      7 C          66.8789   93.1667   13.3404 C.ar    1  UNL1       -0.0073
      8 C          67.0826   92.7168   14.7568 C.ar    1  UNL1       -0.0230
      9 C          66.2193   91.6328   15.3309 C.ar    1  UNL1       -0.0030
     10 C          65.1523   90.9986   14.4887 C.ar    1  UNL1        0.0143
     11 C          64.9486   91.4486   13.0723 C.ar    1  UNL1        0.0502
     12 C          60.2451   88.9603    8.6841 C.ar    1  UNL1       -0.0078
     13 C          61.4484   88.1101    8.9657 C.ar    1  UNL1       -0.0028
     14 C          62.3454   88.4396   10.1218 C.ar    1  UNL1        0.0042
     15 C          62.0392   89.6191   10.9964 C.ar    1  UNL1        0.0539
     16 C          60.8359   90.4693   10.7148 C.ar    1  UNL1        0.0042
     17 C          59.9388   90.1398    9.5587 C.ar    1  UNL1       -0.0028
     18 C          58.7604   87.2564    7.4023 C.3     1  UNL1        0.0222
     19 C          59.3480   88.6309    7.5280 C.3     1  UNL1        0.0801
     20 N          59.0384   89.6759    6.4974 N.3     1  UNL1       -0.2703
     21 C          57.6128   90.0270    6.1899 C.3     1  UNL1        0.0723
     22 C          57.3033   91.0720    5.1593 C.3     1  UNL1        0.0174
     23 C          58.4193   91.7660    4.4362 C.3     1  UNL1        0.0029
     24 C          59.8448   91.4149    4.7437 C.3     1  UNL1        0.0174
     25 C          60.1544   90.3699    5.7743 C.3     1  UNL1        0.0723
     26 C          68.1496   93.3509   15.5991 C.3     1  UNL1        0.0189
     27 C          68.4482   92.0199   16.2229 C.3     1  UNL1        0.0044
     28 C          67.8510   94.6820   14.9753 C.3     1  UNL1        0.0044
     29 C          69.2166   93.9850   16.4414 C.3     1  UNL1        0.0044
@<TRIPOS>BOND
     1    18    19    1
     2    19    12    1
     3    12    13   ar
     4    13    14   ar
     5    14    15   ar
     6    15     1    1
     7     1     2    2
     8     1     3   am
     9     3     4    1
    10     4     5    1
    11     5     6    1
    12     6     7   ar
    13     7     8   ar
    14     8    26    1
    15    26    27    1
    16    26    28    1
    17    26    29    1
    18     8     9   ar
    19     9    10   ar
    20    10    11   ar
    21    15    16   ar
    22    16    17   ar
    23    19    20    1
    24    20    21    1
    25    21    22    1
    26    22    23    1
    27    23    24    1
    28    24    25    1
    29    17    12   ar
    30    25    20    1
    31    11     3    1
    32    11     6   ar
@<TRIPOS>MOLECULE
*****
 29 32 0 0 0
SMALL
GASTEIGER

@<TRIPOS>ATOM
      1 C          63.6037   85.1668   14.8133 C.2     1  UNL1        0.2527
      2 O          63.7029   84.2291   15.9797 O.2     1  UNL1       -0.2696
      3 N          63.3795   84.6254   13.4325 N.am    1  UNL1       -0.2551
      4 C          63.2598   85.4362   12.1762 C.3     1  UNL1        0.1032
      5 C          63.0419   84.4899   11.0329 C.3     1  UNL1        0.0495
      6 C          63.0270   83.0943   11.5826 C.ar    1  UNL1       -0.0071
      7 C          62.8505   81.7582   10.9243 C.ar    1  UNL1       -0.0073
      8 C          62.8825   80.5057   11.7490 C.ar    1  UNL1       -0.0230
      9 C          63.0911   80.5894   13.2321 C.ar    1  UNL1       -0.0030
     10 C          63.2677   81.9256   13.8904 C.ar    1  UNL1        0.0143
     11 C          63.2357   83.1780   13.0656 C.ar    1  UNL1        0.0502
     12 C          63.9787   89.6048   15.4564 C.ar    1  UNL1       -0.0078
     13 C          63.4340   88.7322   16.5481 C.ar    1  UNL1       -0.0028
     14 C          63.3090   87.2529   16.3337 C.ar    1  UNL1        0.0042
     15 C          63.7287   86.6462   15.0276 C.ar    1  UNL1        0.0539
     16 C          64.2734   87.5189   13.9359 C.ar    1  UNL1        0.0042
     17 C          64.3984   88.9982   14.1503 C.ar    1  UNL1       -0.0028
     18 C          63.4071   91.7359   16.8283 C.3     1  UNL1        0.0222
     19 C          64.1037   91.0842   15.6707 C.3     1  UNL1        0.0801
     20 N          64.9254   91.9119   14.7274 N.3     1  UNL1       -0.2703
     21 C          66.0355   92.7714   15.2558 C.3     1  UNL1        0.0723
     22 C          66.8571   93.5990   14.3125 C.3     1  UNL1        0.0174
     23 C          66.5687   93.5672   12.8408 C.3     1  UNL1        0.0029
     24 C          65.4587   92.7078   12.3125 C.3     1  UNL1        0.0174
     25 C          64.6370   91.8801   13.2558 C.3     1  UNL1        0.0723
     26 C          62.7059   79.1694   11.0908 C.3     1  UNL1        0.0189
     27 C          62.9472   79.7979    9.7503 C.3     1  UNL1        0.0044
     28 C          62.4646   78.5409   12.4312 C.3     1  UNL1        0.0044
     29 C          62.5293   77.8332   10.4325 C.3     1  UNL1        0.0044
@<TRIPOS>BOND
     1    18    19    1
     2    19    12    1
     3    12    13   ar
     4    13    14   ar
     5    14    15   ar
     6    15     1    1
     7     1     2    2
     8     1     3   am
     9     3     4    1
    10     4     5    1
    11     5     6    1
    12     6     7   ar
    13     7     8   ar
    14     8    26    1
    15    26    27    1
    16    26    28    1
    17    26    29    1
    18     8     9   ar
    19     9    10   ar
    20    10    11   ar
    21    15    16   ar
    22    16    17   ar
    23    19    20    1
    24    20    21    1
    25    21    22    1
    26    22    23    1
    27    23    24    1
    28    24    25    1
    29    17    12   ar
    30    25    20    1
    31    11     3    1
    32    11     6   ar
@<TRIPOS>MOLECULE
*****
 29 32 0 0 0
SMALL
GASTEIGER

@<TRIPOS>ATOM
      1 C          65.1379   90.7449   14.3373 C.2     1  UNL1        0.2527
      2 O          66.0279   91.6058   15.1837 O.2     1  UNL1       -0.2696
      3 N          64.8263   91.1474   12.9263 N.am    1  UNL1       -0.2551
      4 C          63.9571   90.3917   11.9654 C.3     1  UNL1        0.1032
      5 C          63.9229   91.1536   10.6737 C.3     1  UNL1        0.0495
      6 C          64.7708   92.3802   10.8364 C.ar    1  UNL1       -0.0071
      7 C          65.1066   93.5000    9.8967 C.ar    1  UNL1       -0.0073
      8 C          66.0008   94.6161   10.3492 C.ar    1  UNL1       -0.0230
      9 C          66.5591   94.6123   11.7414 C.ar    1  UNL1       -0.0030
     10 C          66.2233   93.4924   12.6811 C.ar    1  UNL1        0.0143
     11 C          65.3291   92.3764   12.2286 C.ar    1  UNL1        0.0502
     12 C          63.4023   86.9543   16.0311 C.ar    1  UNL1       -0.0078
     13 C          64.3111   86.8959   14.8392 C.ar    1  UNL1       -0.0028
     14 C          64.8896   88.1594   14.2747 C.ar    1  UNL1        0.0042
     15 C          64.5593   89.4813   14.9020 C.ar    1  UNL1        0.0539
     16 C          63.6505   89.5397   16.0939 C.ar    1  UNL1        0.0042
     17 C          63.0720   88.2761   16.6584 C.ar    1  UNL1       -0.0028
     18 C          62.1673   85.7035   17.9445 C.3     1  UNL1        0.0222
     19 C          62.8237   85.6907   16.5957 C.3     1  UNL1        0.0801
     20 N          62.9016   84.4144   15.8117 N.3     1  UNL1       -0.2703
     21 C          64.2344   83.7845   15.5343 C.3     1  UNL1        0.0723
     22 C          64.3122   82.5082   14.7502 C.3     1  UNL1        0.0174
     23 C          63.0572   81.8616   14.2434 C.3     1  UNL1        0.0029
     24 C          61.7244   82.4914   14.5208 C.3     1  UNL1        0.0174
     25 C          61.6466   83.7677   15.3049 C.3     1  UNL1        0.0723
     26 C          66.3366   95.7361    9.4095 C.3     1  UNL1        0.0189
     27 C          67.5969   95.0257    9.0133 C.3     1  UNL1        0.0044
     28 C          65.0764   96.4465    9.8056 C.3     1  UNL1        0.0044
     29 C          66.6725   96.8559    8.4698 C.3     1  UNL1        0.0044
@<TRIPOS>BOND
     1    18    19    1
     2    19    12    1
     3    12    13   ar
     4    13    14   ar
     5    14    15   ar
     6    15     1    1
     7     1     2    2
     8     1     3   am
     9     3     4    1
    10     4     5    1
    11     5     6    1
    12     6     7   ar
    13     7     8   ar
    14     8    26    1
    15    26    27    1
    16    26    28    1
    17    26    29    1
    18     8     9   ar
    19     9    10   ar
    20    10    11   ar
    21    15    16   ar
    22    16    17   ar
    23    19    20    1
    24    20    21    1
    25    21    22    1
    26    22    23    1
    27    23    24    1
    28    24    25    1
    29    17    12   ar
    30    25    20    1
    31    11     3    1
    32    11     6   ar
@<TRIPOS>MOLECULE
*****
 29 32 0 0 0
SMALL
GASTEIGER

@<TRIPOS>ATOM
      1 C          60.6229   87.4610   10.0037 C.2     1  UNL1        0.2527
      2 O          60.1233   87.7596   11.3861 O.2     1  UNL1       -0.2696
      3 N          61.5545   86.3076    9.7757 N.am    1  UNL1       -0.2551
      4 C          62.1336   85.8895    8.4567 C.3     1  UNL1        0.1032
      5 C          63.0076   84.6934    8.6926 C.3     1  UNL1        0.0495
      6 C          62.9686   84.3724   10.1573 C.ar    1  UNL1       -0.0071
      7 C          63.6348   83.3005   10.9679 C.ar    1  UNL1       -0.0073
      8 C          63.4030   83.2263   12.4480 C.ar    1  UNL1       -0.0230
      9 C          62.5049   84.2239   13.1175 C.ar    1  UNL1       -0.0030
     10 C          61.8387   85.2958   12.3068 C.ar    1  UNL1        0.0143
     11 C          62.0706   85.3700   10.8267 C.ar    1  UNL1        0.0502
     12 C          59.3268   90.0251    6.5402 C.ar    1  UNL1       -0.0078
     13 C          60.1429   90.6197    7.6495 C.ar    1  UNL1       -0.0028
     14 C          60.5749   89.7650    8.8039 C.ar    1  UNL1        0.0042
     15 C          60.1909   88.3157    8.8492 C.ar    1  UNL1        0.0539
     16 C          59.3747   87.7211    7.7399 C.ar    1  UNL1        0.0042
     17 C          58.9428   88.5758    6.5855 C.ar    1  UNL1       -0.0028
     18 C          57.4375   91.1539    5.1595 C.3     1  UNL1        0.0222
     19 C          58.8948   90.8798    5.3858 C.3     1  UNL1        0.0801
     20 N          59.9200   91.4603    4.4575 N.3     1  UNL1       -0.2703
     21 C          61.3227   90.9288    4.4621 C.3     1  UNL1        0.0723
     22 C          62.3479   91.5094    3.5339 C.3     1  UNL1        0.0174
     23 C          61.9706   92.6216    2.6008 C.3     1  UNL1        0.0029
     24 C          60.5679   93.1532    2.5961 C.3     1  UNL1        0.0174
     25 C          59.5427   92.5726    3.5244 C.3     1  UNL1        0.0723
     26 C          64.0692   82.1544   13.2587 C.3     1  UNL1        0.0189
     27 C          63.4483   81.1065   12.3834 C.3     1  UNL1        0.0044
     28 C          64.6901   83.2023   14.1341 C.3     1  UNL1        0.0044
     29 C          64.7354   81.0825   14.0694 C.3     1  UNL1        0.0044
@<TRIPOS>BOND
     1    18    19    1
     2    19    12    1
     3    12    13   ar
     4    13    14   ar
     5    14    15   ar
     6    15     1    1
     7     1     2    2
     8     1     3   am
     9     3     4    1
    10     4     5    1
    11     5     6    1
    12     6     7   ar
    13     7     8   ar
    14     8    26    1
    15    26    27    1
    16    26    28    1
    17    26    29    1
    18     8     9   ar
    19     9    10   ar
    20    10    11   ar
    21    15    16   ar
    22    16    17   ar
    23    19    20    1
    24    20    21    1
    25    21    22    1
    26    22    23    1
    27    23    24    1
    28    24    25    1
    29    17    12   ar
    30    25    20    1
    31    11     3    1
    32    11     6   ar
@<TRIPOS>MOLECULE
*****
 29 32 0 0 0
SMALL
GASTEIGER

@<TRIPOS>ATOM
      1 C          57.9422   94.7561   -3.3588 C.2     1  UNL1        0.2527
      2 O          58.1471   94.6121   -4.8377 O.2     1  UNL1       -0.2696
      3 N          56.5987   95.1531   -2.8228 N.am    1  UNL1       -0.2551
      4 C          56.2453   95.3356   -1.3765 C.3     1  UNL1        0.1032
      5 C          54.8008   95.7325   -1.2989 C.3     1  UNL1        0.0495
      6 C          54.2616   95.7954   -2.6972 C.ar    1  UNL1       -0.0071
      7 C          52.9023   96.1325   -3.2345 C.ar    1  UNL1       -0.0073
      8 C          52.6542   96.1115   -4.7137 C.ar    1  UNL1       -0.0230
      9 C          53.7654   95.7534   -5.6555 C.ar    1  UNL1       -0.0030
     10 C          55.1246   95.4163   -5.1182 C.ar    1  UNL1        0.0143
     11 C          55.3727   95.4373   -3.6390 C.ar    1  UNL1        0.0502
     12 C          61.3586   93.9972   -0.5299 C.ar    1  UNL1       -0.0078
     13 C          60.6106   92.8433   -1.1291 C.ar    1  UNL1       -0.0028
     14 C          59.4719   93.0964   -2.0721 C.ar    1  UNL1        0.0042
     15 C          59.0811   94.5032   -2.4158 C.ar    1  UNL1        0.0539
     16 C          59.8291   95.6570   -1.8166 C.ar    1  UNL1        0.0042
     17 C          60.9678   95.4040   -0.8736 C.ar    1  UNL1       -0.0028
     18 C          63.8496   94.3286    0.1300 C.3     1  UNL1        0.0222
     19 C          62.4974   93.7443    0.4130 C.3     1  UNL1        0.0801
     20 N          62.2840   92.9070    1.6392 N.3     1  UNL1       -0.2703
     21 C          61.0048   93.0236    2.4138 C.3     1  UNL1        0.0723
     22 C          60.7915   92.1863    3.6399 C.3     1  UNL1        0.0174
     23 C          61.8573   91.2323    4.0914 C.3     1  UNL1        0.0029
     24 C          63.1365   91.1156    3.3168 C.3     1  UNL1        0.0174
     25 C          63.3498   91.9530    2.0907 C.3     1  UNL1        0.0723
     26 C          51.2949   96.4486   -5.2510 C.3     1  UNL1        0.0189
     27 C          51.9048   96.7935   -6.5773 C.3     1  UNL1        0.0044
     28 C          50.6850   96.1036   -3.9248 C.3     1  UNL1        0.0044
     29 C          49.9357   96.7857   -5.7884 C.3     1  UNL1        0.0044
@<TRIPOS>BOND
     1    18    19    1
     2    19    12    1
     3    12    13   ar
     4    13    14   ar
     5    14    15   ar
     6    15     1    1
     7     1     2    2
     8     1     3   am
     9     3     4    1
    10     4     5    1
    11     5     6    1
    12     6     7   ar
    13     7     8   ar
    14     8    26    1
    15    26    27    1
    16    26    28    1
    17    26    29    1
    18     8     9   ar
    19     9    10   ar
    20    10    11   ar
    21    15    16   ar
    22    16    17   ar
    23    19    20    1
    24    20    21    1
    25    21    22    1
    26    22    23    1
    27    23    24    1
    28    24    25    1
    29    17    12   ar
    30    25    20    1
    31    11     3    1
    32    11     6   ar
@<TRIPOS>MOLECULE
*****
 29 32 0 0 0
SMALL
GASTEIGER

@<TRIPOS>ATOM
      1 C          63.3033   85.1509   13.4969 C.2     1  UNL1        0.2527
      2 O          62.9265   84.4964   14.7928 O.2     1  UNL1       -0.2696
      3 N          63.4195   84.3290   12.2475 N.am    1  UNL1       -0.2551
      4 C          63.7856   84.8413   10.8860 C.3     1  UNL1        0.1032
      5 C          63.7823   83.6794    9.9374 C.3     1  UNL1        0.0495
      6 C          63.4143   82.4490   10.7125 C.ar    1  UNL1       -0.0071
      7 C          63.2544   81.0150   10.3026 C.ar    1  UNL1       -0.0073
      8 C          62.8702   79.9825   11.3206 C.ar    1  UNL1       -0.0230
      9 C          62.6459   80.3840   12.7483 C.ar    1  UNL1       -0.0030
     10 C          62.8058   81.8180   13.1582 C.ar    1  UNL1        0.0143
     11 C          63.1900   82.8505   12.1402 C.ar    1  UNL1        0.0502
     12 C          64.0853   89.5802   13.3573 C.ar    1  UNL1       -0.0078
     13 C          64.6179   88.7601   14.4947 C.ar    1  UNL1       -0.0028
     14 C          64.3572   87.2837   14.5412 C.ar    1  UNL1        0.0042
     15 C          63.5640   86.6274   13.4503 C.ar    1  UNL1        0.0539
     16 C          63.0314   87.4475   12.3129 C.ar    1  UNL1        0.0042
     17 C          63.2921   88.9239   12.2664 C.ar    1  UNL1       -0.0028
     18 C          63.5472   91.9307   12.3897 C.3     1  UNL1        0.0222
     19 C          64.3459   91.0567   13.3107 C.3     1  UNL1        0.0801
     20 N          65.4054   91.6592   14.1850 N.3     1  UNL1       -0.2703
     21 C          66.7914   91.8661   13.6499 C.3     1  UNL1        0.0723
     22 C          67.8508   92.4685   14.5243 C.3     1  UNL1        0.0174
     23 C          67.5243   92.8642   15.9339 C.3     1  UNL1        0.0029
     24 C          66.1384   92.6573   16.4690 C.3     1  UNL1        0.0174
     25 C          65.0789   92.0548   15.5946 C.3     1  UNL1        0.0723
     26 C          62.7102   78.5484   10.9108 C.3     1  UNL1        0.0189
     27 C          62.5640   78.1534   12.3504 C.3     1  UNL1        0.0044
     28 C          62.8565   78.9434    9.4712 C.3     1  UNL1        0.0044
     29 C          62.5503   77.1144   10.5010 C.3     1  UNL1        0.0044
@<TRIPOS>BOND
     1    18    19    1
     2    19    12    1
     3    12    13   ar
     4    13    14   ar
     5    14    15   ar
     6    15     1    1
     7     1     2    2
     8     1     3   am
     9     3     4    1
    10     4     5    1
    11     5     6    1
    12     6     7   ar
    13     7     8   ar
    14     8    26    1
    15    26    27    1
    16    26    28    1
    17    26    29    1
    18     8     9   ar
    19     9    10   ar
    20    10    11   ar
    21    15    16   ar
    22    16    17   ar
    23    19    20    1
    24    20    21    1
    25    21    22    1
    26    22    23    1
    27    23    24    1
    28    24    25    1
    29    17    12   ar
    30    25    20    1
    31    11     3    1
    32    11     6   ar
