@<TRIPOS>MOLECULE
*****
 34 38 0 0 0
SMALL
GASTEIGER

@<TRIPOS>ATOM
      1 N          62.4940   87.1400   11.7293 N.3     1  UNL1       -0.2641
      2 C          62.7644   88.5892   11.4526 C.3     1  UNL1        0.0981
      3 C          62.3248   89.1997   10.1550 C.3     1  UNL1        0.0224
      4 C          62.5952   90.6490    9.8782 C.3     1  UNL1        0.0065
      5 C          63.3054   91.4877   10.8991 C.3     1  UNL1        0.0277
      6 C          63.7450   90.8771   12.1967 C.ar    1  UNL1       -0.0073
      7 C          64.4552   91.7158   13.2177 C.ar    1  UNL1       -0.0015
      8 C          64.8949   91.1053   14.5153 C.ar    1  UNL1        0.0203
      9 C          64.6244   89.6561   14.7921 C.ar    1  UNL1        0.0985
     10 N          63.9143   88.8174   13.7712 N.ar    1  UNL1       -0.2471
     11 C          63.4746   89.4279   12.4735 C.ar    1  UNL1        0.0695
     12 C          61.4135   86.4216   10.9767 C.3     1  UNL1        0.0992
     13 C          60.6728   86.1392    8.5025 C.ar    1  UNL1       -0.0093
     14 C          60.9370   85.6263    7.1179 C.ar    1  UNL1       -0.0032
     15 C          62.2060   84.8830    6.8229 C.ar    1  UNL1       -0.0003
     16 C          63.2108   84.6525    7.9125 C.ar    1  UNL1       -0.0003
     17 C          62.9466   85.1654    9.2971 C.ar    1  UNL1       -0.0032
     18 C          61.6777   85.9087    9.5921 C.ar    1  UNL1       -0.0088
     19 N          58.2775   86.8662    7.8071 N.3     1  UNL1       -0.3175
     20 C          59.4038   86.8826    8.7975 C.3     1  UNL1        0.0919
     21 H          57.4997   87.4189    8.1676 H       1  UNL1        0.1192
     22 H          57.9708   85.9051    7.6568 H       1  UNL1        0.1192
     23 C          63.3041   86.4091   12.7586 C.3     1  UNL1        0.0888
     24 C          62.9502   84.9992   13.1290 C.3     1  UNL1        0.0748
     25 C          63.1899   83.8849   12.1539 C.3     1  UNL1        0.0432
     26 C          62.8360   82.4750   12.5242 C.ar    1  UNL1       -0.0234
     27 C          63.0757   81.3608   11.5491 C.ar    1  UNL1       -0.0045
     28 C          62.7218   79.9510   11.9195 C.ar    1  UNL1       -0.0003
     29 C          62.1283   79.6555   13.2650 C.ar    1  UNL1       -0.0003
     30 C          61.8886   80.7697   14.2401 C.ar    1  UNL1       -0.0032
     31 C          62.2424   82.1795   13.8697 C.ar    1  UNL1       -0.0103
     32 C          62.0028   83.2939   14.8449 C.3     1  UNL1        0.0953
     33 N          62.3566   84.7037   14.4745 N.3     1  UNL1       -0.2934
     34 H          63.0265   85.0316   15.1703 H       1  UNL1        0.1236
@<TRIPOS>BOND
     1    19    20    1
     2    20    13    1
     3    13    14   ar
     4    14    15   ar
     5    15    16   ar
     6    16    17   ar
     7    17    18   ar
     8    18    12    1
     9    12     1    1
    10     1    23    1
    11    24    23    1
    12    24    25    1
    13    25    26    1
    14    26    27   ar
    15    27    28   ar
    16    28    29   ar
    17    29    30   ar
    18    30    31   ar
    19    31    32    1
    20    32    33    1
    21     2     1    1
    22     2     3    1
    23     3     4    1
    24     4     5    1
    25     5     6    1
    26     6     7   ar
    27     7     8   ar
    28     8     9   ar
    29     9    10   ar
    30    10    11   ar
    31    18    13   ar
    32    33    24    1
    33    11     2    1
    34    31    26   ar
    35    11     6   ar
    36    19    21    1
    37    19    22    1
    38    33    34    1
@<TRIPOS>MOLECULE
*****
 34 38 0 0 0
SMALL
GASTEIGER

@<TRIPOS>ATOM
      1 N          64.0253   89.9474   13.6857 N.3     1  UNL1       -0.2641
      2 C          64.8830   91.1509   13.9425 C.3     1  UNL1        0.0981
      3 C          65.4141   91.4131   15.3206 C.3     1  UNL1        0.0224
      4 C          66.2717   92.6166   15.5774 C.3     1  UNL1        0.0065
      5 C          66.5983   93.5580   14.4562 C.3     1  UNL1        0.0277
      6 C          66.0672   93.2958   13.0781 C.ar    1  UNL1       -0.0073
      7 C          66.3937   94.2371   11.9568 C.ar    1  UNL1       -0.0015
      8 C          65.8626   93.9749   10.5787 C.ar    1  UNL1        0.0203
      9 C          65.0049   92.7714   10.3219 C.ar    1  UNL1        0.0985
     10 N          64.6784   91.8301   11.4431 N.ar    1  UNL1       -0.2471
     11 C          65.2095   92.0922   12.8213 C.ar    1  UNL1        0.0695
     12 C          64.5192   88.5811   14.0586 C.3     1  UNL1        0.0992
     13 C          64.0010   86.3856   15.3477 C.ar    1  UNL1       -0.0093
     14 C          63.4386   85.6871   16.5501 C.ar    1  UNL1       -0.0032
     15 C          62.8320   86.4855   17.6658 C.ar    1  UNL1       -0.0003
     16 C          62.7878   87.9823   17.5790 C.ar    1  UNL1       -0.0003
     17 C          63.3502   88.6808   16.3767 C.ar    1  UNL1       -0.0032
     18 C          63.9568   87.8825   15.2610 C.ar    1  UNL1       -0.0088
     19 N          65.6690   84.5699   14.5289 N.3     1  UNL1       -0.3175
     20 C          64.6076   85.5874   14.2320 C.3     1  UNL1        0.0919
     21 H          65.9658   84.1249   13.6604 H       1  UNL1        0.1192
     22 H          65.2950   83.8633   15.1624 H       1  UNL1        0.1192
     23 C          62.6737   90.1102   13.0560 C.3     1  UNL1        0.0888
     24 C          62.2160   89.1456   12.0023 C.3     1  UNL1        0.0748
     25 C          61.3419   89.6204   10.8796 C.3     1  UNL1        0.0432
     26 C          60.8843   88.6558    9.8259 C.ar    1  UNL1       -0.0234
     27 C          60.0101   89.1305    8.7033 C.ar    1  UNL1       -0.0045
     28 C          59.5525   88.1659    7.6497 C.ar    1  UNL1       -0.0003
     29 C          59.9691   86.7266    7.7187 C.ar    1  UNL1       -0.0003
     30 C          60.8432   86.2518    8.8414 C.ar    1  UNL1       -0.0032
     31 C          61.3008   87.2164    9.8950 C.ar    1  UNL1       -0.0103
     32 C          62.1750   86.7417   11.0178 C.3     1  UNL1        0.0953
     33 N          62.6326   87.7063   12.0714 N.3     1  UNL1       -0.2934
     34 H          63.6524   87.6940   12.0589 H       1  UNL1        0.1236
@<TRIPOS>BOND
     1    19    20    1
     2    20    13    1
     3    13    14   ar
     4    14    15   ar
     5    15    16   ar
     6    16    17   ar
     7    17    18   ar
     8    18    12    1
     9    12     1    1
    10     1    23    1
    11    24    23    1
    12    24    25    1
    13    25    26    1
    14    26    27   ar
    15    27    28   ar
    16    28    29   ar
    17    29    30   ar
    18    30    31   ar
    19    31    32    1
    20    32    33    1
    21     2     1    1
    22     2     3    1
    23     3     4    1
    24     4     5    1
    25     5     6    1
    26     6     7   ar
    27     7     8   ar
    28     8     9   ar
    29     9    10   ar
    30    10    11   ar
    31    18    13   ar
    32    33    24    1
    33    11     2    1
    34    31    26   ar
    35    11     6   ar
    36    19    21    1
    37    19    22    1
    38    33    34    1
@<TRIPOS>MOLECULE
*****
 34 38 0 0 0
SMALL
GASTEIGER

@<TRIPOS>ATOM
      1 N          63.7780   89.9546   13.3326 N.3     1  UNL1       -0.2641
      2 C          64.5365   91.1408   12.8152 C.3     1  UNL1        0.0981
      3 C          64.4023   91.5481   11.3779 C.3     1  UNL1        0.0224
      4 C          65.1608   92.7343   10.8605 C.3     1  UNL1        0.0065
      5 C          66.0536   93.5131   11.7805 C.3     1  UNL1        0.0277
      6 C          66.1878   93.1057   13.2178 C.ar    1  UNL1       -0.0073
      7 C          67.0806   93.8846   14.1379 C.ar    1  UNL1       -0.0015
      8 C          67.2149   93.4772   15.5752 C.ar    1  UNL1        0.0203
      9 C          66.4564   92.2910   16.0926 C.ar    1  UNL1        0.0985
     10 N          65.5636   91.5122   15.1726 N.ar    1  UNL1       -0.2471
     11 C          65.4293   91.9196   13.7352 C.ar    1  UNL1        0.0695
     12 C          64.5171   88.7945   13.9309 C.3     1  UNL1        0.0992
     13 C          64.0417   86.6167   15.2654 C.ar    1  UNL1       -0.0093
     14 C          63.5023   85.9332   16.4869 C.ar    1  UNL1       -0.0032
     15 C          62.8989   86.7441   17.5952 C.ar    1  UNL1       -0.0003
     16 C          62.8349   88.2385   17.4821 C.ar    1  UNL1       -0.0003
     17 C          63.3743   88.9219   16.2606 C.ar    1  UNL1       -0.0032
     18 C          63.9777   88.1111   15.1523 C.ar    1  UNL1       -0.0088
     19 N          65.6050   84.6980   14.4753 N.3     1  UNL1       -0.3175
     20 C          64.6451   85.8058   14.1572 C.3     1  UNL1        0.0919
     21 H          65.9140   84.2566   13.6092 H       1  UNL1        0.1192
     22 H          65.1419   84.0052   15.0635 H       1  UNL1        0.1192
     23 C          62.2805   89.9285   13.2517 C.3     1  UNL1        0.0888
     24 C          61.6053   89.5208   11.9757 C.3     1  UNL1        0.0748
     25 C          61.9206   88.1941   11.3511 C.3     1  UNL1        0.0432
     26 C          61.2454   87.7864   10.0751 C.ar    1  UNL1       -0.0234
     27 C          61.5607   86.4597    9.4504 C.ar    1  UNL1       -0.0045
     28 C          60.8855   86.0521    8.1745 C.ar    1  UNL1       -0.0003
     29 C          59.8950   86.9712    7.5233 C.ar    1  UNL1       -0.0003
     30 C          59.5797   88.2980    8.1480 C.ar    1  UNL1       -0.0032
     31 C          60.2549   88.7056    9.4239 C.ar    1  UNL1       -0.0103
     32 C          59.9396   90.0324   10.0486 C.3     1  UNL1        0.0953
     33 N          60.6148   90.4400   11.3245 N.3     1  UNL1       -0.2934
     34 H          59.8763   90.6087   12.0076 H       1  UNL1        0.1236
@<TRIPOS>BOND
     1    19    20    1
     2    20    13    1
     3    13    14   ar
     4    14    15   ar
     5    15    16   ar
     6    16    17   ar
     7    17    18   ar
     8    18    12    1
     9    12     1    1
    10     1    23    1
    11    24    23    1
    12    24    25    1
    13    25    26    1
    14    26    27   ar
    15    27    28   ar
    16    28    29   ar
    17    29    30   ar
    18    30    31   ar
    19    31    32    1
    20    32    33    1
    21     2     1    1
    22     2     3    1
    23     3     4    1
    24     4     5    1
    25     5     6    1
    26     6     7   ar
    27     7     8   ar
    28     8     9   ar
    29     9    10   ar
    30    10    11   ar
    31    18    13   ar
    32    33    24    1
    33    11     2    1
    34    31    26   ar
    35    11     6   ar
    36    19    21    1
    37    19    22    1
    38    33    34    1
@<TRIPOS>MOLECULE
*****
 34 38 0 0 0
SMALL
GASTEIGER

@<TRIPOS>ATOM
      1 N          63.0951   85.4584   12.9107 N.3     1  UNL1       -0.2641
      2 C          63.3289   84.2217   12.0947 C.3     1  UNL1        0.0981
      3 C          64.0010   84.3214   10.7575 C.3     1  UNL1        0.0224
      4 C          64.2348   83.0847    9.9415 C.3     1  UNL1        0.0065
      5 C          63.7966   81.7483   10.4628 C.3     1  UNL1        0.0277
      6 C          63.1246   81.6485   11.8000 C.ar    1  UNL1       -0.0073
      7 C          62.6863   80.3120   12.3214 C.ar    1  UNL1       -0.0015
      8 C          62.0143   80.2122   13.6587 C.ar    1  UNL1        0.0203
      9 C          61.7804   81.4490   14.4747 C.ar    1  UNL1        0.0985
     10 N          62.2186   82.7854   13.9534 N.ar    1  UNL1       -0.2471
     11 C          62.8907   82.8852   12.6160 C.ar    1  UNL1        0.0695
     12 C          64.2087   86.0361   13.7329 C.3     1  UNL1        0.0992
     13 C          63.4772   87.0480   16.0114 C.ar    1  UNL1       -0.0093
     14 C          63.2251   88.2443   16.8805 C.ar    1  UNL1       -0.0032
     15 C          63.4525   89.6251   16.3402 C.ar    1  UNL1       -0.0003
     16 C          63.9320   89.8095   14.9309 C.ar    1  UNL1       -0.0003
     17 C          64.1840   88.6132   14.0619 C.ar    1  UNL1       -0.0032
     18 C          63.9566   87.2324   14.6020 C.ar    1  UNL1       -0.0088
     19 N          62.0177   84.9041   16.1648 N.3     1  UNL1       -0.3175
     20 C          63.2498   85.6672   16.5515 C.3     1  UNL1        0.0919
     21 H          62.0261   83.9914   16.6202 H       1  UNL1        0.1192
     22 H          61.9990   84.7789   15.1527 H       1  UNL1        0.1192
     23 C          61.7477   86.1174   12.9045 C.3     1  UNL1        0.0888
     24 C          61.3323   86.9644   11.7382 C.3     1  UNL1        0.0748
     25 C          60.7371   86.3231   10.5199 C.3     1  UNL1        0.0432
     26 C          60.3217   87.1701    9.3536 C.ar    1  UNL1       -0.0234
     27 C          59.7265   86.5288    8.1353 C.ar    1  UNL1       -0.0045
     28 C          59.3112   87.3758    6.9690 C.ar    1  UNL1       -0.0003
     29 C          59.4911   88.8640    7.0212 C.ar    1  UNL1       -0.0003
     30 C          60.0864   89.5053    8.2395 C.ar    1  UNL1       -0.0032
     31 C          60.5017   88.6583    9.4057 C.ar    1  UNL1       -0.0103
     32 C          61.0970   89.2996   10.6241 C.3     1  UNL1        0.0953
     33 N          61.5123   88.4526   11.7904 N.3     1  UNL1       -0.2934
     34 H          60.9853   88.7848   12.5980 H       1  UNL1        0.1236
@<TRIPOS>BOND
     1    19    20    1
     2    20    13    1
     3    13    14   ar
     4    14    15   ar
     5    15    16   ar
     6    16    17   ar
     7    17    18   ar
     8    18    12    1
     9    12     1    1
    10     1    23    1
    11    24    23    1
    12    24    25    1
    13    25    26    1
    14    26    27   ar
    15    27    28   ar
    16    28    29   ar
    17    29    30   ar
    18    30    31   ar
    19    31    32    1
    20    32    33    1
    21     2     1    1
    22     2     3    1
    23     3     4    1
    24     4     5    1
    25     5     6    1
    26     6     7   ar
    27     7     8   ar
    28     8     9   ar
    29     9    10   ar
    30    10    11   ar
    31    18    13   ar
    32    33    24    1
    33    11     2    1
    34    31    26   ar
    35    11     6   ar
    36    19    21    1
    37    19    22    1
    38    33    34    1
@<TRIPOS>MOLECULE
*****
 34 38 0 0 0
SMALL
GASTEIGER

@<TRIPOS>ATOM
      1 N          61.8293   87.2818   11.6103 N.3     1  UNL1       -0.2641
      2 C          62.4296   86.0841   10.9357 C.3     1  UNL1        0.0981
      3 C          62.7127   86.1163    9.4630 C.3     1  UNL1        0.0224
      4 C          63.3131   84.9186    8.7883 C.3     1  UNL1        0.0065
      5 C          63.6303   83.6888    9.5863 C.3     1  UNL1        0.0277
      6 C          63.3472   83.6566   11.0590 C.ar    1  UNL1       -0.0073
      7 C          63.6645   82.4267   11.8570 C.ar    1  UNL1       -0.0015
      8 C          63.3814   82.3946   13.3297 C.ar    1  UNL1        0.0203
      9 C          62.7810   83.5922   14.0044 C.ar    1  UNL1        0.0985
     10 N          62.4637   84.8220   13.2064 N.ar    1  UNL1       -0.2471
     11 C          62.7469   84.8543   11.7336 C.ar    1  UNL1        0.0695
     12 C          60.4181   87.6869   11.3029 C.3     1  UNL1        0.0992
     13 C          59.9306   89.4002    9.4116 C.ar    1  UNL1       -0.0093
     14 C          59.5257   89.6937    7.9974 C.ar    1  UNL1       -0.0032
     15 C          59.2034   88.5675    7.0604 C.ar    1  UNL1       -0.0003
     16 C          59.2861   87.1479    7.5376 C.ar    1  UNL1       -0.0003
     17 C          59.6910   86.8543    8.9517 C.ar    1  UNL1       -0.0032
     18 C          60.0132   87.9804    9.8888 C.ar    1  UNL1       -0.0088
     19 N          59.2568   90.9442   11.3894 N.3     1  UNL1       -0.3175
     20 C          60.2528   90.5263   10.3486 C.3     1  UNL1        0.0919
     21 H          59.6382   91.7179   11.9338 H       1  UNL1        0.1192
     22 H          59.0610   90.1572   12.0080 H       1  UNL1        0.1192
     23 C          62.6400   88.0743   12.5924 C.3     1  UNL1        0.0888
     24 C          63.2920   89.3560   12.1654 C.3     1  UNL1        0.0748
     25 C          64.1455   90.1217   13.1324 C.3     1  UNL1        0.0432
     26 C          64.7975   91.4034   12.7054 C.ar    1  UNL1       -0.0234
     27 C          65.6510   92.1692   13.6724 C.ar    1  UNL1       -0.0045
     28 C          66.3030   93.4508   13.2453 C.ar    1  UNL1       -0.0003
     29 C          66.1015   93.9666   11.8513 C.ar    1  UNL1       -0.0003
     30 C          65.2480   93.2008   10.8843 C.ar    1  UNL1       -0.0032
     31 C          64.5960   91.9192   11.3113 C.ar    1  UNL1       -0.0103
     32 C          63.7425   91.1534   10.3443 C.3     1  UNL1        0.0953
     33 N          63.0906   89.8718   10.7713 N.3     1  UNL1       -0.2934
     34 H          63.4250   89.1459   10.1376 H       1  UNL1        0.1236
@<TRIPOS>BOND
     1    19    20    1
     2    20    13    1
     3    13    14   ar
     4    14    15   ar
     5    15    16   ar
     6    16    17   ar
     7    17    18   ar
     8    18    12    1
     9    12     1    1
    10     1    23    1
    11    24    23    1
    12    24    25    1
    13    25    26    1
    14    26    27   ar
    15    27    28   ar
    16    28    29   ar
    17    29    30   ar
    18    30    31   ar
    19    31    32    1
    20    32    33    1
    21     2     1    1
    22     2     3    1
    23     3     4    1
    24     4     5    1
    25     5     6    1
    26     6     7   ar
    27     7     8   ar
    28     8     9   ar
    29     9    10   ar
    30    10    11   ar
    31    18    13   ar
    32    33    24    1
    33    11     2    1
    34    31    26   ar
    35    11     6   ar
    36    19    21    1
    37    19    22    1
    38    33    34    1
@<TRIPOS>MOLECULE
*****
 34 38 0 0 0
SMALL
GASTEIGER

@<TRIPOS>ATOM
      1 N          62.4932   87.7064   11.9663 N.3     1  UNL1       -0.2641
      2 C          63.3276   88.6652   12.7629 C.3     1  UNL1        0.0981
      3 C          63.7428   88.3154   14.1612 C.3     1  UNL1        0.0224
      4 C          64.5771   89.2742   14.9578 C.3     1  UNL1        0.0065
      5 C          64.9962   90.5828   14.3562 C.3     1  UNL1        0.0277
      6 C          64.5809   90.9325   12.9579 C.ar    1  UNL1       -0.0073
      7 C          65.0000   92.2411   12.3562 C.ar    1  UNL1       -0.0015
      8 C          64.5848   92.5909   10.9579 C.ar    1  UNL1        0.0203
      9 C          63.7505   91.6321   10.1613 C.ar    1  UNL1        0.0985
     10 N          63.3314   90.3235   10.7629 N.ar    1  UNL1       -0.2471
     11 C          63.7466   89.9737   12.1613 C.ar    1  UNL1        0.0695
     12 C          61.0513   88.0155   11.6922 C.3     1  UNL1        0.0992
     13 C          60.0828   89.1958    9.5901 C.ar    1  UNL1       -0.0093
     14 C          59.5538   89.1246    8.1883 C.ar    1  UNL1       -0.0032
     15 C          59.4642   87.8017    7.4868 C.ar    1  UNL1       -0.0003
     16 C          59.9036   86.5501    8.1872 C.ar    1  UNL1       -0.0003
     17 C          60.4326   86.6214    9.5890 C.ar    1  UNL1       -0.0032
     18 C          60.5223   87.9442   10.2904 C.ar    1  UNL1       -0.0088
     19 N          59.2238   90.8415   11.4077 N.3     1  UNL1       -0.3175
     20 C          60.1725   90.5186   10.2916 C.3     1  UNL1        0.0919
     21 H          59.4262   91.7744   11.7668 H       1  UNL1        0.1192
     22 H          59.3342   90.1576   12.1563 H       1  UNL1        0.1192
     23 C          63.1009   86.4384   11.4438 C.3     1  UNL1        0.0888
     24 C          62.8563   85.1407   12.1552 C.3     1  UNL1        0.0748
     25 C          62.9882   83.8429   11.4147 C.3     1  UNL1        0.0432
     26 C          62.7436   82.5452   12.1262 C.ar    1  UNL1       -0.0234
     27 C          62.8756   81.2474   11.3857 C.ar    1  UNL1       -0.0045
     28 C          62.6310   79.9498   12.0972 C.ar    1  UNL1       -0.0003
     29 C          62.2545   79.9499   13.5492 C.ar    1  UNL1       -0.0003
     30 C          62.1225   81.2477   14.2897 C.ar    1  UNL1       -0.0032
     31 C          62.3671   82.5453   13.5782 C.ar    1  UNL1       -0.0103
     32 C          62.2352   83.8432   14.3187 C.3     1  UNL1        0.0953
     33 N          62.4798   85.1408   13.6072 N.3     1  UNL1       -0.2934
     34 H          63.2333   85.6130   14.1068 H       1  UNL1        0.1236
@<TRIPOS>BOND
     1    19    20    1
     2    20    13    1
     3    13    14   ar
     4    14    15   ar
     5    15    16   ar
     6    16    17   ar
     7    17    18   ar
     8    18    12    1
     9    12     1    1
    10     1    23    1
    11    24    23    1
    12    24    25    1
    13    25    26    1
    14    26    27   ar
    15    27    28   ar
    16    28    29   ar
    17    29    30   ar
    18    30    31   ar
    19    31    32    1
    20    32    33    1
    21     2     1    1
    22     2     3    1
    23     3     4    1
    24     4     5    1
    25     5     6    1
    26     6     7   ar
    27     7     8   ar
    28     8     9   ar
    29     9    10   ar
    30    10    11   ar
    31    18    13   ar
    32    33    24    1
    33    11     2    1
    34    31    26   ar
    35    11     6   ar
    36    19    21    1
    37    19    22    1
    38    33    34    1
@<TRIPOS>MOLECULE
*****
 34 38 0 0 0
SMALL
GASTEIGER

@<TRIPOS>ATOM
      1 N          62.0279   87.5410   11.1852 N.3     1  UNL1       -0.2641
      2 C          61.0871   87.2709   10.0485 C.3     1  UNL1        0.0981
      3 C          59.7247   87.8983   10.0373 C.3     1  UNL1        0.0224
      4 C          58.7840   87.6282    8.9006 C.3     1  UNL1        0.0065
      5 C          59.2056   86.7306    7.7752 C.3     1  UNL1        0.0277
      6 C          60.5680   86.1031    7.7865 C.ar    1  UNL1       -0.0073
      7 C          60.9896   85.2055    6.6611 C.ar    1  UNL1       -0.0015
      8 C          62.3520   84.5780    6.6724 C.ar    1  UNL1        0.0203
      9 C          63.2928   84.8482    7.8090 C.ar    1  UNL1        0.0985
     10 N          62.8712   85.7458    8.9344 N.ar    1  UNL1       -0.2471
     11 C          61.5087   86.3733    8.9232 C.ar    1  UNL1        0.0695
     12 C          61.8467   88.7642   12.0342 C.3     1  UNL1        0.0992
     13 C          63.7113   90.1431   13.2056 C.ar    1  UNL1       -0.0093
     14 C          64.7335   91.2402   13.1682 C.ar    1  UNL1       -0.0032
     15 C          64.9133   92.0556   11.9220 C.ar    1  UNL1       -0.0003
     16 C          64.0709   91.7738   10.7133 C.ar    1  UNL1       -0.0003
     17 C          63.0487   90.6767   10.7507 C.ar    1  UNL1       -0.0032
     18 C          62.8689   89.8613   11.9968 C.ar    1  UNL1       -0.0088
     19 N          64.2164   87.9998   14.5843 N.3     1  UNL1       -0.3175
     20 C          63.5315   89.3277   14.4516 C.3     1  UNL1        0.0919
     21 H          63.9850   87.5867   15.4878 H       1  UNL1        0.1192
     22 H          65.2259   88.1298   14.5185 H       1  UNL1        0.1192
     23 C          63.1499   86.5880   11.4728 C.3     1  UNL1        0.0888
     24 C          62.8792   85.3131   12.2155 C.3     1  UNL1        0.0748
     25 C          63.0152   83.9937   11.5151 C.3     1  UNL1        0.0432
     26 C          62.7446   82.7188   12.2578 C.ar    1  UNL1       -0.0234
     27 C          62.8805   81.3994   11.5573 C.ar    1  UNL1       -0.0045
     28 C          62.6099   80.1247   12.3000 C.ar    1  UNL1       -0.0003
     29 C          62.2033   80.1693   13.7432 C.ar    1  UNL1       -0.0003
     30 C          62.0673   81.4887   14.4436 C.ar    1  UNL1       -0.0032
     31 C          62.3380   82.7634   13.7009 C.ar    1  UNL1       -0.0103
     32 C          62.2020   84.0829   14.4014 C.3     1  UNL1        0.0953
     33 N          62.4726   85.3577   13.6587 N.3     1  UNL1       -0.2934
     34 H          63.2197   85.8378   14.1604 H       1  UNL1        0.1236
@<TRIPOS>BOND
     1    19    20    1
     2    20    13    1
     3    13    14   ar
     4    14    15   ar
     5    15    16   ar
     6    16    17   ar
     7    17    18   ar
     8    18    12    1
     9    12     1    1
    10     1    23    1
    11    24    23    1
    12    24    25    1
    13    25    26    1
    14    26    27   ar
    15    27    28   ar
    16    28    29   ar
    17    29    30   ar
    18    30    31   ar
    19    31    32    1
    20    32    33    1
    21     2     1    1
    22     2     3    1
    23     3     4    1
    24     4     5    1
    25     5     6    1
    26     6     7   ar
    27     7     8   ar
    28     8     9   ar
    29     9    10   ar
    30    10    11   ar
    31    18    13   ar
    32    33    24    1
    33    11     2    1
    34    31    26   ar
    35    11     6   ar
    36    19    21    1
    37    19    22    1
    38    33    34    1
@<TRIPOS>MOLECULE
*****
 34 38 0 0 0
SMALL
GASTEIGER

@<TRIPOS>ATOM
      1 N          63.8829   89.7684   14.4207 N.3     1  UNL1       -0.2641
      2 C          63.5659   88.7230   15.4486 C.3     1  UNL1        0.0981
      3 C          63.1933   89.1309   16.8431 C.3     1  UNL1        0.0224
      4 C          62.8764   88.0855   17.8710 C.3     1  UNL1        0.0065
      5 C          62.9320   86.6321   17.5044 C.3     1  UNL1        0.0277
      6 C          63.3045   86.2241   16.1099 C.ar    1  UNL1       -0.0073
      7 C          63.3602   84.7706   15.7432 C.ar    1  UNL1       -0.0015
      8 C          63.7327   84.3627   14.3487 C.ar    1  UNL1        0.0203
      9 C          64.0497   85.4081   13.3208 C.ar    1  UNL1        0.0985
     10 N          63.9941   86.8615   13.6874 N.ar    1  UNL1       -0.2471
     11 C          63.6215   87.2695   15.0820 C.ar    1  UNL1        0.0695
     12 C          65.3077   90.1611   14.1650 C.3     1  UNL1        0.0992
     13 C          66.1158   92.6204   14.3866 C.ar    1  UNL1       -0.0093
     14 C          66.4272   93.9469   13.7595 C.ar    1  UNL1       -0.0032
     15 C          66.2420   94.1407   12.2835 C.ar    1  UNL1       -0.0003
     16 C          65.7454   93.0080   11.4349 C.ar    1  UNL1       -0.0003
     17 C          65.4340   91.6814   12.0620 C.ar    1  UNL1       -0.0032
     18 C          65.6192   91.4876   13.5378 C.ar    1  UNL1       -0.0088
     19 N          65.1919   92.7766   16.8098 N.3     1  UNL1       -0.3175
     20 C          66.3010   92.4265   15.8624 C.3     1  UNL1        0.0919
     21 H          65.4881   92.5829   17.7664 H       1  UNL1        0.1192
     22 H          64.3675   92.2179   16.5894 H       1  UNL1        0.1192
     23 C          62.7749   90.4212   13.6485 C.3     1  UNL1        0.0888
     24 C          62.0084   89.6348   12.6266 C.3     1  UNL1        0.0748
     25 C          62.7380   88.7538   11.6564 C.3     1  UNL1        0.0432
     26 C          61.9714   87.9675   10.6345 C.ar    1  UNL1       -0.0234
     27 C          62.7010   87.0864    9.6642 C.ar    1  UNL1       -0.0045
     28 C          61.9345   86.3002    8.6424 C.ar    1  UNL1       -0.0003
     29 C          60.4383   86.3949    8.5909 C.ar    1  UNL1       -0.0003
     30 C          59.7088   87.2759    9.5612 C.ar    1  UNL1       -0.0032
     31 C          60.4753   88.0622   10.5830 C.ar    1  UNL1       -0.0103
     32 C          59.7457   88.9433   11.5533 C.3     1  UNL1        0.0953
     33 N          60.5123   89.7296   12.5751 N.3     1  UNL1       -0.2934
     34 H          60.1671   89.4389   13.4899 H       1  UNL1        0.1236
@<TRIPOS>BOND
     1    19    20    1
     2    20    13    1
     3    13    14   ar
     4    14    15   ar
     5    15    16   ar
     6    16    17   ar
     7    17    18   ar
     8    18    12    1
     9    12     1    1
    10     1    23    1
    11    24    23    1
    12    24    25    1
    13    25    26    1
    14    26    27   ar
    15    27    28   ar
    16    28    29   ar
    17    29    30   ar
    18    30    31   ar
    19    31    32    1
    20    32    33    1
    21     2     1    1
    22     2     3    1
    23     3     4    1
    24     4     5    1
    25     5     6    1
    26     6     7   ar
    27     7     8   ar
    28     8     9   ar
    29     9    10   ar
    30    10    11   ar
    31    18    13   ar
    32    33    24    1
    33    11     2    1
    34    31    26   ar
    35    11     6   ar
    36    19    21    1
    37    19    22    1
    38    33    34    1
@<TRIPOS>MOLECULE
*****
 34 38 0 0 0
SMALL
GASTEIGER

@<TRIPOS>ATOM
      1 N          63.4294   88.3057   13.0102 N.3     1  UNL1       -0.2641
      2 C          62.7006   87.5122   11.9666 C.3     1  UNL1        0.0981
      3 C          62.8773   86.0244   11.8964 C.3     1  UNL1        0.0224
      4 C          62.1485   85.2309   10.8528 C.3     1  UNL1        0.0065
      5 C          61.2429   85.9252    9.8793 C.3     1  UNL1        0.0277
      6 C          61.0662   87.4131    9.9494 C.ar    1  UNL1       -0.0073
      7 C          60.1606   88.1076    8.9759 C.ar    1  UNL1       -0.0015
      8 C          59.9839   89.5954    9.0460 C.ar    1  UNL1        0.0203
      9 C          60.7128   90.3889   10.0896 C.ar    1  UNL1        0.0985
     10 N          61.6183   89.6946   11.0631 N.ar    1  UNL1       -0.2471
     11 C          61.7951   88.2066   10.9930 C.ar    1  UNL1        0.0695
     12 C          64.3290   87.6104   13.9886 C.3     1  UNL1        0.0992
     13 C          63.7624   85.7363   15.6965 C.ar    1  UNL1       -0.0093
     14 C          63.2320   85.3157   17.0351 C.ar    1  UNL1       -0.0032
     15 C          62.7377   86.3484   18.0042 C.ar    1  UNL1       -0.0003
     16 C          62.7738   87.8017   17.6348 C.ar    1  UNL1       -0.0003
     17 C          63.3042   88.2224   16.2963 C.ar    1  UNL1       -0.0032
     18 C          63.7985   87.1898   15.3271 C.ar    1  UNL1       -0.0088
     19 N          65.7294   84.4643   14.5729 N.3     1  UNL1       -0.3175
     20 C          64.2568   84.7037   14.7274 C.3     1  UNL1        0.0919
     21 H          65.8841   83.7342   13.8776 H       1  UNL1        0.1192
     22 H          66.1219   84.1707   15.4674 H       1  UNL1        0.1192
     23 C          63.2587   89.7945   13.0754 C.3     1  UNL1        0.0888
     24 C          64.2084   90.6234   13.8886 C.3     1  UNL1        0.0748
     25 C          65.6150   90.8358   13.4129 C.3     1  UNL1        0.0432
     26 C          66.5646   91.6647   14.2260 C.ar    1  UNL1       -0.0234
     27 C          67.9713   91.8771   13.7504 C.ar    1  UNL1       -0.0045
     28 C          68.9208   92.7060   14.5635 C.ar    1  UNL1       -0.0003
     29 C          68.4638   93.3225   15.8523 C.ar    1  UNL1       -0.0003
     30 C          67.0571   93.1101   16.3280 C.ar    1  UNL1       -0.0032
     31 C          66.1076   92.2813   15.5148 C.ar    1  UNL1       -0.0103
     32 C          64.7009   92.0689   15.9905 C.3     1  UNL1        0.0953
     33 N          63.7513   91.2400   15.1773 N.3     1  UNL1       -0.2934
     34 H          62.9568   91.8385   14.9519 H       1  UNL1        0.1236
@<TRIPOS>BOND
     1    19    20    1
     2    20    13    1
     3    13    14   ar
     4    14    15   ar
     5    15    16   ar
     6    16    17   ar
     7    17    18   ar
     8    18    12    1
     9    12     1    1
    10     1    23    1
    11    24    23    1
    12    24    25    1
    13    25    26    1
    14    26    27   ar
    15    27    28   ar
    16    28    29   ar
    17    29    30   ar
    18    30    31   ar
    19    31    32    1
    20    32    33    1
    21     2     1    1
    22     2     3    1
    23     3     4    1
    24     4     5    1
    25     5     6    1
    26     6     7   ar
    27     7     8   ar
    28     8     9   ar
    29     9    10   ar
    30    10    11   ar
    31    18    13   ar
    32    33    24    1
    33    11     2    1
    34    31    26   ar
    35    11     6   ar
    36    19    21    1
    37    19    22    1
    38    33    34    1
