@<TRIPOS>MOLECULE
*****
 47 51 0 0 0
SMALL
GASTEIGER

@<TRIPOS>ATOM
      1 C          61.6877   87.3396    9.9967 C.ar    1  UNL1        0.0611
      2 C          61.5674   85.8466    9.9161 C.ar    1  UNL1        0.0112
      3 C          62.1206   84.9892   11.0156 C.ar    1  UNL1        0.0208
      4 C          62.7940   85.6248   12.1957 C.ar    1  UNL1        0.1218
      5 N          62.9142   87.1178   12.2763 N.ar    1  UNL1       -0.2421
      6 C          62.3611   87.9752   11.1768 C.ar    1  UNL1        0.1068
      7 C          63.3471   84.7674   13.2952 C.3     1  UNL1        0.3254
      8 F          61.9961   84.1769   13.0192 F       1  UNL1       -0.1949
      9 F          64.6015   85.5898   13.3055 F       1  UNL1       -0.1949
     10 C          63.9003   83.9100   14.3947 C.3     1  UNL1        0.1932
     11 O          64.4534   83.0526   15.4942 O.3     1  UNL1       -0.3755
     12 H          64.8129   83.6182   16.1955 H       1  UNL1        0.2110
     13 C          63.5061   82.6793   13.6332 C.ar    1  UNL1        0.0368
     14 C          62.4810   81.7426   14.2004 C.ar    1  UNL1        0.0028
     15 C          62.0868   80.5118   13.4389 C.ar    1  UNL1        0.0295
     16 C          62.7179   80.2177   12.1103 C.ar    1  UNL1        0.1424
     17 F          62.3237   78.9869   11.3488 F       1  UNL1       -0.2041
     18 C          63.7430   81.1544   11.5431 C.ar    1  UNL1        0.0590
     19 C          64.1372   82.3851   12.3046 C.ar    1  UNL1        0.1408
     20 F          65.1624   83.3218   11.7374 F       1  UNL1       -0.2043
     21 C          64.2944   85.1408   15.1562 C.3     1  UNL1        0.1679
     22 N          63.2702   85.8854   15.9602 N.ar    1  UNL1       -0.2078
     23 C          63.3886   87.2994   16.4463 C.ar    1  UNL1        0.2216
     24 N          62.1392   87.6347   17.2059 N.ar    1  UNL1       -0.1048
     25 N          61.2486   86.4278   17.1891 N.ar    1  UNL1       -0.0226
     26 N          61.9476   85.3467   16.4193 N.ar    1  UNL1       -0.0428
     27 C          60.5814   89.0544    7.7977 C.1     1  UNL1       -0.0597
     28 C          61.1346   88.1970    8.8972 C.1     1  UNL1       -0.0582
     29 C          58.9220   91.6266    4.4992 C.ar    1  UNL1        0.1391
     30 C          57.9915   90.9312    5.4482 C.ar    1  UNL1        0.0375
     31 C          58.5446   90.0738    6.5477 C.ar    1  UNL1        0.0114
     32 C          60.0283   89.9118    6.6982 C.ar    1  UNL1        0.0422
     33 C          60.9587   90.6072    5.7492 C.ar    1  UNL1        0.0114
     34 C          60.4056   91.4646    4.6497 C.ar    1  UNL1        0.0375
     35 O          58.3688   92.4840    3.3997 O.3     1  UNL1       -0.4706
     36 C          59.0213   92.4850    2.0491 C.3     1  UNL1        0.2320
     37 C          62.7599   94.8924    1.3581 C.ar    1  UNL1        0.0533
     38 C          61.4680   95.5869    1.6723 C.ar    1  UNL1        0.0043
     39 C          60.2218   94.7844    1.9026 C.ar    1  UNL1       -0.0005
     40 C          60.2675   93.2875    1.8187 C.ar    1  UNL1        0.0212
     41 C          61.5593   92.5931    1.5045 C.ar    1  UNL1       -0.0005
     42 C          62.8055   93.3955    1.2742 C.ar    1  UNL1        0.0043
     43 C          65.7331   96.7513   -0.5005 C.3     1  UNL1        0.1109
     44 N          64.4869   95.9488   -0.2702 N.am    1  UNL1       -0.2992
     45 C          64.0061   95.6949    1.1277 C.2     1  UNL1        0.2459
     46 O          64.7714   96.2435    2.2953 O.2     1  UNL1       -0.2701
     47 H          63.9846   95.5888   -1.0366 H       1  UNL1        0.1498
@<TRIPOS>BOND
     1    43    44    1
     2    44    45   am
     3    45    46    2
     4    45    37    1
     5    37    38   ar
     6    38    39   ar
     7    39    40   ar
     8    40    36    1
     9    36    35    1
    10    35    29    1
    11    29    30   ar
    12    30    31   ar
    13    31    32   ar
    14    32    27    1
    15    27    28    3
    16    28     1    1
    17     1     2   ar
    18     2     3   ar
    19     3     4   ar
    20     4     7    1
    21     7     8    1
    22     7     9    1
    23     7    10    1
    24    10    11    1
    25    10    21    1
    26    21    22    1
    27    22    23   ar
    28    23    24   ar
    29    24    25   ar
    30    25    26   ar
    31    10    13    1
    32    13    14   ar
    33    14    15   ar
    34    15    16   ar
    35    16    17    1
    36    16    18   ar
    37    18    19   ar
    38    19    20    1
    39     4     5   ar
    40     5     6   ar
    41    32    33   ar
    42    33    34   ar
    43    40    41   ar
    44    41    42   ar
    45    42    37   ar
    46    34    29   ar
    47     6     1   ar
    48    26    22   ar
    49    19    13   ar
    50    44    47    1
    51    11    12    1
@<TRIPOS>MOLECULE
*****
 47 51 0 0 0
SMALL
GASTEIGER

@<TRIPOS>ATOM
      1 C          61.7473   87.3829    9.8863 C.ar    1  UNL1        0.0611
      2 C          61.7545   85.8885    9.7566 C.ar    1  UNL1        0.0112
      3 C          62.2948   85.0416   10.8705 C.ar    1  UNL1        0.0208
      4 C          62.8279   85.6892   12.1142 C.ar    1  UNL1        0.1218
      5 N          62.8207   87.1835   12.2438 N.ar    1  UNL1       -0.2421
      6 C          62.2804   88.0304   11.1299 C.ar    1  UNL1        0.1068
      7 C          63.3682   84.8423   13.2281 C.3     1  UNL1        0.3254
      8 F          61.9788   84.3186   13.0151 F       1  UNL1       -0.1949
      9 F          64.6655   85.5932   13.1697 F       1  UNL1       -0.1949
     10 C          63.9086   83.9954   14.3420 C.3     1  UNL1        0.1932
     11 O          64.4489   83.1485   15.4559 O.3     1  UNL1       -0.3755
     12 H          64.8098   83.7206   16.1512 H       1  UNL1        0.2110
     13 C          63.5076   82.7577   13.5955 C.ar    1  UNL1        0.0368
     14 C          62.4578   81.8477   14.1611 C.ar    1  UNL1        0.0028
     15 C          62.0568   80.6100   13.4146 C.ar    1  UNL1        0.0295
     16 C          62.7056   80.2822   12.1025 C.ar    1  UNL1        0.1424
     17 F          62.3046   79.0445   11.3560 F       1  UNL1       -0.2041
     18 C          63.7554   81.1922   11.5369 C.ar    1  UNL1        0.0590
     19 C          64.1564   82.4299   12.2834 C.ar    1  UNL1        0.1408
     20 F          65.2063   83.3398   11.7178 F       1  UNL1       -0.2043
     21 C          64.3096   85.2331   15.0885 C.3     1  UNL1        0.1679
     22 N          63.3216   85.9237   15.9812 N.ar    1  UNL1       -0.2078
     23 C          63.4294   87.3287   16.4950 C.ar    1  UNL1        0.2216
     24 N          62.2267   87.6039   17.3482 N.ar    1  UNL1       -0.1048
     25 N          61.3755   86.3689   17.3617 N.ar    1  UNL1       -0.0226
     26 N          62.0522   85.3304   16.5168 N.ar    1  UNL1       -0.0428
     27 C          60.6666   89.0767    7.6584 C.1     1  UNL1       -0.0597
     28 C          61.2070   88.2298    8.7724 C.1     1  UNL1       -0.0582
     29 C          59.0457   91.6174    4.3167 C.ar    1  UNL1        0.1391
     30 C          58.1050   90.9539    5.2785 C.ar    1  UNL1        0.0375
     31 C          58.6453   90.1070    6.3924 C.ar    1  UNL1        0.0114
     32 C          60.1263   89.9236    6.5445 C.ar    1  UNL1        0.0422
     33 C          61.0669   90.5871    5.5828 C.ar    1  UNL1        0.0114
     34 C          60.5266   91.4340    4.4688 C.ar    1  UNL1        0.0375
     35 O          58.5054   92.4643    3.2027 O.3     1  UNL1       -0.4706
     36 C          59.4460   93.1290    2.2419 C.3     1  UNL1        0.2320
     37 C          58.6507   92.9358   -2.1830 C.ar    1  UNL1        0.0533
     38 C          57.5051   93.0092   -1.2176 C.ar    1  UNL1        0.0043
     39 C          57.7702   93.0736    0.2574 C.ar    1  UNL1       -0.0005
     40 C          59.1809   93.0646    0.7669 C.ar    1  UNL1        0.0212
     41 C          60.3265   92.9912   -0.1985 C.ar    1  UNL1       -0.0005
     42 C          60.0614   92.9268   -1.6735 C.ar    1  UNL1        0.0043
     43 C          57.1861   91.7702   -5.6825 C.3     1  UNL1        0.1109
     44 N          57.4512   91.8346   -4.2075 N.am    1  UNL1       -0.2992
     45 C          58.3856   92.8714   -3.6580 C.2     1  UNL1        0.2459
     46 O          59.0548   93.8438   -4.5835 O.2     1  UNL1       -0.2701
     47 H          57.0120   91.1964   -3.6001 H       1  UNL1        0.1498
@<TRIPOS>BOND
     1    43    44    1
     2    44    45   am
     3    45    46    2
     4    45    37    1
     5    37    38   ar
     6    38    39   ar
     7    39    40   ar
     8    40    36    1
     9    36    35    1
    10    35    29    1
    11    29    30   ar
    12    30    31   ar
    13    31    32   ar
    14    32    27    1
    15    27    28    3
    16    28     1    1
    17     1     2   ar
    18     2     3   ar
    19     3     4   ar
    20     4     7    1
    21     7     8    1
    22     7     9    1
    23     7    10    1
    24    10    11    1
    25    10    21    1
    26    21    22    1
    27    22    23   ar
    28    23    24   ar
    29    24    25   ar
    30    25    26   ar
    31    10    13    1
    32    13    14   ar
    33    14    15   ar
    34    15    16   ar
    35    16    17    1
    36    16    18   ar
    37    18    19   ar
    38    19    20    1
    39     4     5   ar
    40     5     6   ar
    41    32    33   ar
    42    33    34   ar
    43    40    41   ar
    44    41    42   ar
    45    42    37   ar
    46    34    29   ar
    47     6     1   ar
    48    26    22   ar
    49    19    13   ar
    50    44    47    1
    51    11    12    1
@<TRIPOS>MOLECULE
*****
 47 51 0 0 0
SMALL
GASTEIGER

@<TRIPOS>ATOM
      1 C          61.7481   87.2641   10.0313 C.ar    1  UNL1        0.0611
      2 C          61.6865   85.7690    9.9257 C.ar    1  UNL1        0.0112
      3 C          62.2263   84.9160   11.0352 C.ar    1  UNL1        0.0208
      4 C          62.8278   85.5581   12.2502 C.ar    1  UNL1        0.1218
      5 N          62.8893   87.0530   12.3557 N.ar    1  UNL1       -0.2421
      6 C          62.3495   87.9061   11.2462 C.ar    1  UNL1        0.1068
      7 C          63.3676   84.7050   13.3597 C.3     1  UNL1        0.3254
      8 F          61.9814   84.1767   13.1372 F       1  UNL1       -0.1949
      9 F          64.6616   85.4622   13.3122 F       1  UNL1       -0.1949
     10 C          63.9075   83.8520   14.4691 C.3     1  UNL1        0.1932
     11 O          64.4473   82.9990   15.5786 O.3     1  UNL1       -0.3755
     12 H          64.8135   83.5670   16.2743 H       1  UNL1        0.2110
     13 C          63.4978   82.6186   13.7202 C.ar    1  UNL1        0.0368
     14 C          62.4541   81.7058   14.2923 C.ar    1  UNL1        0.0028
     15 C          62.0444   80.4724   13.5433 C.ar    1  UNL1        0.0295
     16 C          62.6784   80.1519   12.2223 C.ar    1  UNL1        0.1424
     17 F          62.2687   78.9185   11.4733 F       1  UNL1       -0.2041
     18 C          63.7221   81.0647   11.6501 C.ar    1  UNL1        0.0590
     19 C          64.1318   82.2981   12.3991 C.ar    1  UNL1        0.1408
     20 F          65.1755   83.2109   11.8269 F       1  UNL1       -0.2043
     21 C          64.3172   85.0854   15.2181 C.3     1  UNL1        0.1679
     22 N          63.2997   85.8586   16.0034 N.ar    1  UNL1       -0.2078
     23 C          63.4238   87.2880   16.4406 C.ar    1  UNL1        0.2216
     24 N          62.1802   87.6510   17.1969 N.ar    1  UNL1       -0.1048
     25 N          61.2875   86.4460   17.2269 N.ar    1  UNL1       -0.0226
     26 N          61.9794   85.3382   16.4893 N.ar    1  UNL1       -0.0428
     27 C          60.6683   88.9702    7.8124 C.1     1  UNL1       -0.0597
     28 C          61.2082   88.1172    8.9218 C.1     1  UNL1       -0.0582
     29 C          59.0488   91.5293    4.4840 C.ar    1  UNL1        0.1391
     30 C          60.5303   91.3590    4.6462 C.ar    1  UNL1        0.0375
     31 C          61.0701   90.5060    5.7557 C.ar    1  UNL1        0.0114
     32 C          60.1285   89.8232    6.7029 C.ar    1  UNL1        0.0422
     33 C          58.6471   89.9935    6.5407 C.ar    1  UNL1        0.0114
     34 C          58.1072   90.8465    5.4312 C.ar    1  UNL1        0.0375
     35 O          58.5089   92.3823    3.3746 O.3     1  UNL1       -0.4706
     36 C          59.3013   93.5544    2.8762 C.3     1  UNL1        0.2320
     37 C          61.1733   93.4291   -1.2140 C.ar    1  UNL1        0.0533
     38 C          59.6973   93.2123   -1.0578 C.ar    1  UNL1        0.0043
     39 C          59.0733   93.2540    0.3056 C.ar    1  UNL1       -0.0005
     40 C          59.9253   93.5126    1.5128 C.ar    1  UNL1        0.0212
     41 C          61.4012   93.7294    1.3565 C.ar    1  UNL1       -0.0005
     42 C          62.0252   93.6877   -0.0069 C.ar    1  UNL1        0.0043
     43 C          63.8129   92.8128   -4.1128 C.3     1  UNL1        0.1109
     44 N          63.1889   92.8546   -2.7494 N.am    1  UNL1       -0.2992
     45 C          61.7973   93.3873   -2.5775 C.2     1  UNL1        0.2459
     46 O          61.0297   93.8783   -3.7689 O.2     1  UNL1       -0.2701
     47 H          63.6927   92.5323   -1.9674 H       1  UNL1        0.1498
@<TRIPOS>BOND
     1    43    44    1
     2    44    45   am
     3    45    46    2
     4    45    37    1
     5    37    38   ar
     6    38    39   ar
     7    39    40   ar
     8    40    36    1
     9    36    35    1
    10    35    29    1
    11    29    30   ar
    12    30    31   ar
    13    31    32   ar
    14    32    27    1
    15    27    28    3
    16    28     1    1
    17     1     2   ar
    18     2     3   ar
    19     3     4   ar
    20     4     7    1
    21     7     8    1
    22     7     9    1
    23     7    10    1
    24    10    11    1
    25    10    21    1
    26    21    22    1
    27    22    23   ar
    28    23    24   ar
    29    24    25   ar
    30    25    26   ar
    31    10    13    1
    32    13    14   ar
    33    14    15   ar
    34    15    16   ar
    35    16    17    1
    36    16    18   ar
    37    18    19   ar
    38    19    20    1
    39     4     5   ar
    40     5     6   ar
    41    32    33   ar
    42    33    34   ar
    43    40    41   ar
    44    41    42   ar
    45    42    37   ar
    46    34    29   ar
    47     6     1   ar
    48    26    22   ar
    49    19    13   ar
    50    44    47    1
    51    11    12    1
@<TRIPOS>MOLECULE
*****
 47 51 0 0 0
SMALL
GASTEIGER

@<TRIPOS>ATOM
      1 C          61.4860   87.5965    9.4059 C.ar    1  UNL1        0.0611
      2 C          61.7284   86.1369    9.1590 C.ar    1  UNL1        0.0112
      3 C          62.2259   85.2608   10.2702 C.ar    1  UNL1        0.0208
      4 C          62.4811   85.8442   11.6284 C.ar    1  UNL1        0.1218
      5 N          62.2387   87.3038   11.8753 N.ar    1  UNL1       -0.2421
      6 C          61.7411   88.1799   10.7640 C.ar    1  UNL1        0.1068
      7 C          62.9787   84.9681   12.7396 C.3     1  UNL1        0.3254
      8 F          61.6570   85.4722   13.2389 F       1  UNL1       -0.1949
      9 F          64.2167   84.6672   11.9480 F       1  UNL1       -0.1949
     10 C          63.4763   84.0920   13.8509 C.3     1  UNL1        0.1932
     11 O          63.9738   83.2159   14.9621 O.3     1  UNL1       -0.3755
     12 H          64.0976   82.3126   14.6310 H       1  UNL1        0.2110
     13 C          63.4492   85.2638   14.7869 C.ar    1  UNL1        0.0368
     14 C          64.1902   86.5202   14.4372 C.ar    1  UNL1        0.0028
     15 C          64.1632   87.6921   15.3732 C.ar    1  UNL1        0.0295
     16 C          63.3952   87.6075   16.6589 C.ar    1  UNL1        0.1424
     17 F          63.3682   88.7793   17.5949 F       1  UNL1       -0.2041
     18 C          62.6542   86.3511   17.0085 C.ar    1  UNL1        0.0590
     19 C          62.6812   85.1793   16.0725 C.ar    1  UNL1        0.1408
     20 F          61.9402   83.9228   16.4222 F       1  UNL1       -0.2043
     21 C          63.5033   82.9202   12.9149 C.3     1  UNL1        0.1679
     22 N          62.6768   81.7041   13.2115 N.ar    1  UNL1       -0.2078
     23 C          62.8610   80.3439   12.6069 C.ar    1  UNL1        0.2216
     24 N          61.8189   79.4338   13.1866 N.ar    1  UNL1       -0.1048
     25 N          60.9907   80.2317   14.1496 N.ar    1  UNL1       -0.0226
     26 N          61.5208   81.6348   14.1651 N.ar    1  UNL1       -0.0428
     27 C          60.4908   89.3487    7.1835 C.1     1  UNL1       -0.0597
     28 C          60.9884   88.4726    8.2947 C.1     1  UNL1       -0.0582
     29 C          58.9981   91.9771    3.8498 C.ar    1  UNL1        0.1391
     30 C          58.0259   91.3613    4.8120 C.ar    1  UNL1        0.0375
     31 C          58.5235   90.4852    5.9232 C.ar    1  UNL1        0.0114
     32 C          59.9933   90.2248    6.0722 C.ar    1  UNL1        0.0422
     33 C          60.9653   90.8406    5.1100 C.ar    1  UNL1        0.0114
     34 C          60.4678   91.7167    3.9988 C.ar    1  UNL1        0.0375
     35 O          58.5005   92.8532    2.7386 O.3     1  UNL1       -0.4706
     36 C          59.4156   93.2253    1.6098 C.3     1  UNL1        0.2320
     37 C          58.1094   92.5886   -2.6491 C.ar    1  UNL1        0.0533
     38 C          57.0921   92.6037   -1.5469 C.ar    1  UNL1        0.0043
     39 C          57.5275   92.8159   -0.1273 C.ar    1  UNL1       -0.0005
     40 C          58.9802   93.0131    0.1902 C.ar    1  UNL1        0.0212
     41 C          59.9974   92.9980   -0.9120 C.ar    1  UNL1       -0.0005
     42 C          59.5620   92.7858   -2.3317 C.ar    1  UNL1        0.0043
     43 C          57.0802   93.3387   -6.4078 C.3     1  UNL1        0.1109
     44 N          57.5156   93.5509   -4.9882 N.am    1  UNL1       -0.2992
     45 C          57.6739   92.3764   -4.0687 C.2     1  UNL1        0.2459
     46 O          57.3969   90.9897   -4.5689 O.2     1  UNL1       -0.2701
     47 H          57.6974   94.4611   -4.6599 H       1  UNL1        0.1498
@<TRIPOS>BOND
     1    43    44    1
     2    44    45   am
     3    45    46    2
     4    45    37    1
     5    37    38   ar
     6    38    39   ar
     7    39    40   ar
     8    40    36    1
     9    36    35    1
    10    35    29    1
    11    29    30   ar
    12    30    31   ar
    13    31    32   ar
    14    32    27    1
    15    27    28    3
    16    28     1    1
    17     1     2   ar
    18     2     3   ar
    19     3     4   ar
    20     4     7    1
    21     7     8    1
    22     7     9    1
    23     7    10    1
    24    10    11    1
    25    10    21    1
    26    21    22    1
    27    22    23   ar
    28    23    24   ar
    29    24    25   ar
    30    25    26   ar
    31    10    13    1
    32    13    14   ar
    33    14    15   ar
    34    15    16   ar
    35    16    17    1
    36    16    18   ar
    37    18    19   ar
    38    19    20    1
    39     4     5   ar
    40     5     6   ar
    41    32    33   ar
    42    33    34   ar
    43    40    41   ar
    44    41    42   ar
    45    42    37   ar
    46    34    29   ar
    47     6     1   ar
    48    26    22   ar
    49    19    13   ar
    50    44    47    1
    51    11    12    1
@<TRIPOS>MOLECULE
*****
 47 51 0 0 0
SMALL
GASTEIGER

@<TRIPOS>ATOM
      1 C          61.4675   87.5591    9.5046 C.ar    1  UNL1        0.0611
      2 C          62.0810   88.1785   10.7253 C.ar    1  UNL1        0.0112
      3 C          62.5978   87.3054   11.8302 C.ar    1  UNL1        0.0208
      4 C          62.5011   85.8130   11.7143 C.ar    1  UNL1        0.1218
      5 N          61.8876   85.1937   10.4936 N.ar    1  UNL1       -0.2421
      6 C          61.3708   86.0668    9.3888 C.ar    1  UNL1        0.1068
      7 C          63.0179   84.9399   12.8191 C.3     1  UNL1        0.3254
      8 F          61.7152   85.4624   13.3485 F       1  UNL1       -0.1949
      9 F          64.2315   84.6192   11.9980 F       1  UNL1       -0.1949
     10 C          63.5347   84.0669   13.9240 C.3     1  UNL1        0.1932
     11 O          64.0515   83.1938   15.0288 O.3     1  UNL1       -0.3755
     12 H          64.1904   82.2947   14.6923 H       1  UNL1        0.2110
     13 C          63.4894   85.2328   14.8665 C.ar    1  UNL1        0.0368
     14 C          64.2366   86.4915   14.5390 C.ar    1  UNL1        0.0028
     15 C          64.1913   87.6575   15.4815 C.ar    1  UNL1        0.0295
     16 C          63.3989   87.5648   16.7517 C.ar    1  UNL1        0.1424
     17 F          63.3536   88.7308   17.6942 F       1  UNL1       -0.2041
     18 C          62.6516   86.3062   17.0793 C.ar    1  UNL1        0.0590
     19 C          62.6969   85.1402   16.1367 C.ar    1  UNL1        0.1408
     20 F          61.9496   83.8814   16.4643 F       1  UNL1       -0.2043
     21 C          63.5799   82.9009   12.9814 C.3     1  UNL1        0.1679
     22 N          62.7372   81.6887   13.2468 N.ar    1  UNL1       -0.2078
     23 C          62.9496   80.3227   12.6651 C.ar    1  UNL1        0.2216
     24 N          61.8777   79.4195   13.1994 N.ar    1  UNL1       -0.1048
     25 N          61.0028   80.2274   14.1113 N.ar    1  UNL1       -0.0226
     26 N          61.5339   81.6299   14.1407 N.ar    1  UNL1       -0.0428
     27 C          60.4339   89.3053    7.2949 C.1     1  UNL1       -0.0597
     28 C          60.9507   88.4322    8.3998 C.1     1  UNL1       -0.0582
     29 C          58.8836   91.9245    3.9804 C.ar    1  UNL1        0.1391
     30 C          60.3598   91.7104    4.1390 C.ar    1  UNL1        0.0375
     31 C          60.8766   90.8373    5.2438 C.ar    1  UNL1        0.0114
     32 C          59.9171   90.1784    6.1901 C.ar    1  UNL1        0.0422
     33 C          58.4410   90.3925    6.0315 C.ar    1  UNL1        0.0114
     34 C          57.9242   91.2655    4.9266 C.ar    1  UNL1        0.0375
     35 O          58.3668   92.7976    2.8756 O.3     1  UNL1       -0.4706
     36 C          59.0708   92.8272    1.5514 C.3     1  UNL1        0.2320
     37 C          62.9975   94.9862    1.1388 C.ar    1  UNL1        0.0533
     38 C          62.9143   93.5179    0.8439 C.ar    1  UNL1        0.0043
     39 C          61.6054   92.7982    0.9814 C.ar    1  UNL1       -0.0005
     40 C          60.3797   93.5469    1.4139 C.ar    1  UNL1        0.0212
     41 C          60.4629   95.0152    1.7088 C.ar    1  UNL1       -0.0005
     42 C          61.7718   95.7349    1.5712 C.ar    1  UNL1        0.0043
     43 C          66.0959   96.8557   -0.4905 C.3     1  UNL1        0.1109
     44 N          64.7870   96.1361   -0.3529 N.am    1  UNL1       -0.2992
     45 C          64.3064   95.7059    1.0012 C.2     1  UNL1        0.2459
     46 O          65.1346   95.9953    2.2179 O.2     1  UNL1       -0.2701
     47 H          64.2434   95.9461   -1.1515 H       1  UNL1        0.1498
@<TRIPOS>BOND
     1    43    44    1
     2    44    45   am
     3    45    46    2
     4    45    37    1
     5    37    38   ar
     6    38    39   ar
     7    39    40   ar
     8    40    36    1
     9    36    35    1
    10    35    29    1
    11    29    30   ar
    12    30    31   ar
    13    31    32   ar
    14    32    27    1
    15    27    28    3
    16    28     1    1
    17     1     2   ar
    18     2     3   ar
    19     3     4   ar
    20     4     7    1
    21     7     8    1
    22     7     9    1
    23     7    10    1
    24    10    11    1
    25    10    21    1
    26    21    22    1
    27    22    23   ar
    28    23    24   ar
    29    24    25   ar
    30    25    26   ar
    31    10    13    1
    32    13    14   ar
    33    14    15   ar
    34    15    16   ar
    35    16    17    1
    36    16    18   ar
    37    18    19   ar
    38    19    20    1
    39     4     5   ar
    40     5     6   ar
    41    32    33   ar
    42    33    34   ar
    43    40    41   ar
    44    41    42   ar
    45    42    37   ar
    46    34    29   ar
    47     6     1   ar
    48    26    22   ar
    49    19    13   ar
    50    44    47    1
    51    11    12    1
@<TRIPOS>MOLECULE
*****
 47 51 0 0 0
SMALL
GASTEIGER

@<TRIPOS>ATOM
      1 C          60.0776   91.4906    4.3204 C.ar    1  UNL1        0.0611
      2 C          61.2920   91.9271    3.5558 C.ar    1  UNL1        0.0112
      3 C          61.1413   92.7864    2.3356 C.ar    1  UNL1        0.0208
      4 C          59.7760   93.2091    1.8800 C.ar    1  UNL1        0.1218
      5 N          58.5617   92.7726    2.6446 N.ar    1  UNL1       -0.2421
      6 C          58.7124   91.9134    3.8648 C.ar    1  UNL1        0.1068
      7 C          59.6253   94.0684    0.6597 C.3     1  UNL1        0.3254
      8 F          59.8717   92.6952    0.1085 F       1  UNL1       -0.1949
      9 F          59.4089   95.2693    1.5321 F       1  UNL1       -0.1949
     10 C          59.4745   94.9276   -0.5605 C.3     1  UNL1        0.1932
     11 O          59.3237   95.7869   -1.7807 O.3     1  UNL1       -0.3755
     12 H          58.3814   95.9120   -1.9737 H       1  UNL1        0.2110
     13 C          60.9668   95.0263   -0.6754 C.ar    1  UNL1        0.0368
     14 C          61.7279   95.9591    0.2192 C.ar    1  UNL1        0.0028
     15 C          63.2203   96.0578    0.1043 C.ar    1  UNL1        0.0295
     16 C          63.9515   95.2236   -0.9053 C.ar    1  UNL1        0.1424
     17 F          65.4438   95.3222   -1.0202 F       1  UNL1       -0.2041
     18 C          63.1904   94.2907   -1.7999 C.ar    1  UNL1        0.0590
     19 C          61.6981   94.1921   -1.6850 C.ar    1  UNL1        0.1408
     20 F          60.9370   93.2591   -2.5798 F       1  UNL1       -0.2043
     21 C          57.9822   94.8290   -0.4456 C.3     1  UNL1        0.1679
     22 N          57.2303   93.8315   -1.2760 N.ar    1  UNL1       -0.2078
     23 C          56.7780   94.0262   -2.6928 C.ar    1  UNL1        0.2216
     24 N          56.0668   92.7791   -3.1279 N.ar    1  UNL1       -0.1048
     25 N          56.0796   91.8138   -1.9800 N.ar    1  UNL1       -0.0226
     26 N          56.7987   92.4641   -0.8355 N.ar    1  UNL1       -0.0428
     27 C          60.3791   89.7721    6.7609 C.1     1  UNL1       -0.0597
     28 C          60.2283   90.6314    5.5406 C.1     1  UNL1       -0.0582
     29 C          60.8314   87.1944   10.4216 C.ar    1  UNL1        0.1391
     30 C          60.6665   88.6784   10.5650 C.ar    1  UNL1        0.0375
     31 C          60.5158   89.5377    9.3448 C.ar    1  UNL1        0.0114
     32 C          60.5299   88.9129    7.9811 C.ar    1  UNL1        0.0422
     33 C          60.6947   87.4289    7.8377 C.ar    1  UNL1        0.0114
     34 C          60.8455   86.5697    9.0580 C.ar    1  UNL1        0.0375
     35 O          60.9822   86.3351   11.6418 O.3     1  UNL1       -0.4706
     36 C          62.3350   86.1411   12.2600 C.3     1  UNL1        0.2320
     37 C          64.4795   89.6318   14.1218 C.ar    1  UNL1        0.0533
     38 C          63.7416   89.8084   12.8279 C.ar    1  UNL1        0.0043
     39 C          63.0268   88.6448   12.2073 C.ar    1  UNL1       -0.0005
     40 C          63.0498   87.3047   12.8806 C.ar    1  UNL1        0.0212
     41 C          63.7877   87.1281   14.1746 C.ar    1  UNL1       -0.0005
     42 C          64.5025   88.2917   14.7952 C.ar    1  UNL1        0.0043
     43 C          67.3587   92.1971   15.0596 C.3     1  UNL1        0.1109
     44 N          66.6438   91.0335   14.4390 N.am    1  UNL1       -0.2992
     45 C          65.1943   90.7954   14.7424 C.2     1  UNL1        0.2459
     46 O          64.4597   91.7207   15.6665 O.2     1  UNL1       -0.2701
     47 H          67.1261   90.4262   13.8325 H       1  UNL1        0.1498
@<TRIPOS>BOND
     1    43    44    1
     2    44    45   am
     3    45    46    2
     4    45    37    1
     5    37    38   ar
     6    38    39   ar
     7    39    40   ar
     8    40    36    1
     9    36    35    1
    10    35    29    1
    11    29    30   ar
    12    30    31   ar
    13    31    32   ar
    14    32    27    1
    15    27    28    3
    16    28     1    1
    17     1     2   ar
    18     2     3   ar
    19     3     4   ar
    20     4     7    1
    21     7     8    1
    22     7     9    1
    23     7    10    1
    24    10    11    1
    25    10    21    1
    26    21    22    1
    27    22    23   ar
    28    23    24   ar
    29    24    25   ar
    30    25    26   ar
    31    10    13    1
    32    13    14   ar
    33    14    15   ar
    34    15    16   ar
    35    16    17    1
    36    16    18   ar
    37    18    19   ar
    38    19    20    1
    39     4     5   ar
    40     5     6   ar
    41    32    33   ar
    42    33    34   ar
    43    40    41   ar
    44    41    42   ar
    45    42    37   ar
    46    34    29   ar
    47     6     1   ar
    48    26    22   ar
    49    19    13   ar
    50    44    47    1
    51    11    12    1
@<TRIPOS>MOLECULE
*****
 47 51 0 0 0
SMALL
GASTEIGER

@<TRIPOS>ATOM
      1 C          60.3154   91.6788    4.0501 C.ar    1  UNL1        0.0611
      2 C          61.5555   91.9712    3.2583 C.ar    1  UNL1        0.0112
      3 C          61.4756   92.8245    2.0273 C.ar    1  UNL1        0.0208
      4 C          60.1556   93.3854    1.5880 C.ar    1  UNL1        0.1218
      5 N          58.9156   93.0931    2.3797 N.ar    1  UNL1       -0.2421
      6 C          58.9955   92.2398    3.6107 C.ar    1  UNL1        0.1068
      7 C          60.0756   94.2387    0.3569 C.3     1  UNL1        0.3254
      8 F          59.3995   95.0615    1.4134 F       1  UNL1       -0.1949
      9 F          60.7924   93.1780   -0.4248 F       1  UNL1       -0.1949
     10 C          59.9957   95.0921   -0.8741 C.3     1  UNL1        0.1932
     11 O          59.9158   95.9454   -2.1052 O.3     1  UNL1       -0.3755
     12 H          60.5411   96.6829   -2.0285 H       1  UNL1        0.2110
     13 C          58.9418   94.1840   -1.4351 C.ar    1  UNL1        0.0368
     14 C          57.5956   94.1020   -0.7787 C.ar    1  UNL1        0.0028
     15 C          56.5417   93.1939   -1.3397 C.ar    1  UNL1        0.0295
     16 C          56.8340   92.3679   -2.5571 C.ar    1  UNL1        0.1424
     17 F          55.7801   91.4599   -3.1181 F       1  UNL1       -0.2041
     18 C          58.1802   92.4499   -3.2136 C.ar    1  UNL1        0.0590
     19 C          59.2341   93.3580   -2.6526 C.ar    1  UNL1        0.1408
     20 F          60.5804   93.4400   -3.3091 F       1  UNL1       -0.2043
     21 C          61.0496   96.0001   -0.3131 C.3     1  UNL1        0.1679
     22 N          62.4950   95.7599   -0.6343 N.ar    1  UNL1       -0.2078
     23 C          63.5964   95.5496    0.3620 C.ar    1  UNL1        0.2216
     24 N          64.8749   95.3475   -0.3962 N.ar    1  UNL1       -0.1048
     25 N          64.5636   95.4330   -1.8610 N.ar    1  UNL1       -0.0226
     26 N          63.0928   95.6879   -2.0082 N.ar    1  UNL1       -0.0428
     27 C          60.4752   89.9722    6.5122 C.1     1  UNL1       -0.0597
     28 C          60.3953   90.8255    5.2811 C.1     1  UNL1       -0.0582
     29 C          60.7150   87.4123   10.2053 C.ar    1  UNL1        0.1391
     30 C          60.7606   88.9069   10.3245 C.ar    1  UNL1        0.0375
     31 C          60.6806   89.7602    9.0934 C.ar    1  UNL1        0.0114
     32 C          60.5552   89.1189    7.7432 C.ar    1  UNL1        0.0422
     33 C          60.5096   87.6244    7.6241 C.ar    1  UNL1        0.0114
     34 C          60.5895   86.7710    8.8551 C.ar    1  UNL1        0.0375
     35 O          60.7949   86.5590   11.4363 O.3     1  UNL1       -0.4706
     36 C          62.1239   86.2908   12.0781 C.3     1  UNL1        0.2320
     37 C          64.3893   89.6438   14.0468 C.ar    1  UNL1        0.0533
     38 C          63.5234   89.9225   12.8541 C.ar    1  UNL1        0.0043
     39 C          62.7683   88.8048   12.1979 C.ar    1  UNL1       -0.0005
     40 C          62.8790   87.4085   12.7343 C.ar    1  UNL1        0.0212
     41 C          63.7448   87.1297   13.9271 C.ar    1  UNL1       -0.0005
     42 C          64.4999   88.2474   14.5833 C.ar    1  UNL1        0.0043
     43 C          67.3264   92.1441   14.9804 C.3     1  UNL1        0.1109
     44 N          66.5713   91.0264   14.3241 N.am    1  UNL1       -0.2992
     45 C          65.1444   90.7614   14.7031 C.2     1  UNL1        0.2459
     46 O          64.4726   91.6140   15.7383 O.2     1  UNL1       -0.2701
     47 H          67.0122   90.4669   13.6447 H       1  UNL1        0.1498
@<TRIPOS>BOND
     1    43    44    1
     2    44    45   am
     3    45    46    2
     4    45    37    1
     5    37    38   ar
     6    38    39   ar
     7    39    40   ar
     8    40    36    1
     9    36    35    1
    10    35    29    1
    11    29    30   ar
    12    30    31   ar
    13    31    32   ar
    14    32    27    1
    15    27    28    3
    16    28     1    1
    17     1     2   ar
    18     2     3   ar
    19     3     4   ar
    20     4     7    1
    21     7     8    1
    22     7     9    1
    23     7    10    1
    24    10    11    1
    25    10    21    1
    26    21    22    1
    27    22    23   ar
    28    23    24   ar
    29    24    25   ar
    30    25    26   ar
    31    10    13    1
    32    13    14   ar
    33    14    15   ar
    34    15    16   ar
    35    16    17    1
    36    16    18   ar
    37    18    19   ar
    38    19    20    1
    39     4     5   ar
    40     5     6   ar
    41    32    33   ar
    42    33    34   ar
    43    40    41   ar
    44    41    42   ar
    45    42    37   ar
    46    34    29   ar
    47     6     1   ar
    48    26    22   ar
    49    19    13   ar
    50    44    47    1
    51    11    12    1
