@<TRIPOS>MOLECULE
*****
 37 40 0 0 0
SMALL
GASTEIGER

@<TRIPOS>ATOM
      1 C          62.7146   88.0705   12.1448 C.3     1  UNL1        0.0963
      2 C          61.6248   88.3492   11.1526 C.3     1  UNL1        0.0126
      3 C          61.5251   89.6998   10.5076 C.3     1  UNL1        0.0220
      4 C          62.5152   90.7716   10.8549 C.3     1  UNL1        0.0922
      5 N          63.6051   90.4930   11.8472 N.pl3   1  UNL1       -0.2926
      6 C          63.7048   89.1424   12.4921 C.3     1  UNL1        0.1012
      7 C          64.5953   91.5649   12.1944 C.ar    1  UNL1        0.1361
      8 C          65.1094   92.4852   11.1274 C.ar    1  UNL1        0.0686
      9 C          66.0995   93.5571   11.4746 C.ar    1  UNL1        0.1362
     10 N          66.5756   93.7087   12.8890 N.ar    1  UNL1       -0.2083
     11 C          66.0615   92.7883   13.9561 C.ar    1  UNL1        0.2374
     12 N          65.0713   91.7164   13.6088 N.ar    1  UNL1       -0.2083
     13 N          66.6136   94.4775   10.4075 N.pl3   1  UNL1       -0.2903
     14 C          66.2622   95.9353   10.4413 C.3     1  UNL1        0.1093
     15 C          66.7763   96.8556    9.3743 C.3     1  UNL1        0.0904
     16 N          67.6419   96.3182    8.2734 N.3     1  UNL1       -0.2946
     17 C          67.9933   94.8602    8.2396 C.3     1  UNL1        0.0904
     18 C          67.4792   93.9399    9.3066 C.3     1  UNL1        0.1093
     19 H          68.5219   96.8323    8.3131 H       1  UNL1        0.1233
     20 C          66.5375   92.9399   15.3704 C.3     1  UNL1        0.4524
     21 F          67.0135   93.0914   16.7849 F       1  UNL1       -0.1632
     22 F          65.3364   92.1836   15.8557 F       1  UNL1       -0.1632
     23 F          67.7385   93.6961   14.8852 F       1  UNL1       -0.1632
     24 N          63.6958   86.5240   13.9876 N.am    1  UNL1       -0.3040
     25 C          62.8143   86.7199   12.7898 C.2     1  UNL1        0.2237
     26 O          62.0326   85.5652   12.2370 O.2     1  UNL1       -0.2751
     27 H          64.2089   87.2818   14.3504 H       1  UNL1        0.1494
     28 C          63.7955   85.1734   14.6325 C.3     1  UNL1        0.0941
     29 C          64.7485   84.1509   14.0883 C.3     1  UNL1        0.0476
     30 C          63.3129   81.0968   11.1114 C.ar    1  UNL1        0.0684
     31 C          64.0744   82.3010   10.6425 C.ar    1  UNL1        0.0100
     32 C          64.5529   83.3190   11.6348 C.ar    1  UNL1       -0.0035
     33 C          64.2699   83.1328   13.0960 C.ar    1  UNL1       -0.0204
     34 C          63.5084   81.9286   13.5649 C.ar    1  UNL1       -0.0035
     35 C          63.0299   80.9106   12.5726 C.ar    1  UNL1        0.0100
     36 N          62.3558   79.0607    9.1268 N.1     1  UNL1       -0.1908
     37 C          62.8343   80.0788   10.1191 C.1     1  UNL1        0.1004
@<TRIPOS>BOND
     1    36    37    3
     2    37    30    1
     3    30    31   ar
     4    31    32   ar
     5    32    33   ar
     6    33    29    1
     7    29    28    1
     8    28    24    1
     9    24    25   am
    10    25    26    2
    11     1    25    1
    12     1     2    1
    13     2     3    1
    14     3     4    1
    15     4     5    1
    16     5     7    1
    17     7     8   ar
    18     8     9   ar
    19     9    13    1
    20    13    14    1
    21    14    15    1
    22    15    16    1
    23    16    17    1
    24    17    18    1
    25     9    10   ar
    26    10    11   ar
    27    11    20    1
    28    20    21    1
    29    20    22    1
    30    20    23    1
    31    11    12   ar
    32     5     6    1
    33    33    34   ar
    34    34    35   ar
    35    35    30   ar
    36     6     1    1
    37    12     7   ar
    38    18    13    1
    39    24    27    1
    40    16    19    1
@<TRIPOS>MOLECULE
*****
 37 40 0 0 0
SMALL
GASTEIGER

@<TRIPOS>ATOM
      1 C          62.0949   87.5968   10.9040 C.3     1  UNL1        0.0963
      2 C          61.1140   88.0431    9.8607 C.3     1  UNL1        0.0126
      3 C          61.0542   89.4863    9.4560 C.3     1  UNL1        0.0220
      4 C          61.9753   90.4831   10.0946 C.3     1  UNL1        0.0922
      5 N          62.9563   90.0368   11.1380 N.pl3   1  UNL1       -0.2926
      6 C          63.0161   88.5936   11.5427 C.3     1  UNL1        0.1012
      7 C          63.8774   91.0336   11.7766 C.ar    1  UNL1        0.1361
      8 C          64.6030   92.0353   10.9280 C.ar    1  UNL1        0.0686
      9 C          65.5242   93.0321   11.5666 C.ar    1  UNL1        0.1362
     10 N          65.7197   93.0273   13.0538 N.ar    1  UNL1       -0.2083
     11 C          64.9941   92.0255   13.9024 C.ar    1  UNL1        0.2374
     12 N          64.0730   91.0287   13.2637 N.ar    1  UNL1       -0.2083
     13 N          66.2498   94.0338   10.7180 N.pl3   1  UNL1       -0.2903
     14 C          67.1699   93.5678    9.6289 C.3     1  UNL1        0.1093
     15 C          67.8955   94.5696    8.7804 C.3     1  UNL1        0.0904
     16 N          67.7010   96.0373    9.0209 N.3     1  UNL1       -0.2946
     17 C          66.7808   96.5034   10.1100 C.3     1  UNL1        0.0904
     18 C          66.0552   95.5016   10.9586 C.3     1  UNL1        0.1093
     19 H          67.3505   96.4346    8.1493 H       1  UNL1        0.1233
     20 C          65.1896   92.0206   15.3896 C.3     1  UNL1        0.4524
     21 F          65.3851   92.0157   16.8768 F       1  UNL1       -0.1632
     22 F          64.2158   90.8865   15.5139 F       1  UNL1       -0.1632
     23 F          66.1634   93.1547   15.2653 F       1  UNL1       -0.1632
     24 N          63.1239   85.2261   10.6375 N.am    1  UNL1       -0.3040
     25 C          62.1548   86.1537   11.3087 C.2     1  UNL1        0.2237
     26 O          61.2455   85.6381   12.3845 O.2     1  UNL1       -0.2751
     27 H          63.7207   85.5645    9.9314 H       1  UNL1        0.1494
     28 C          63.1837   83.7829   11.0422 C.3     1  UNL1        0.0941
     29 C          63.9384   83.3802   12.2743 C.3     1  UNL1        0.0476
     30 C          63.1309   85.4535   16.1858 C.ar    1  UNL1        0.0684
     31 C          64.2073   85.9641   15.2745 C.ar    1  UNL1        0.0100
     32 C          64.4765   85.2730   13.9706 C.ar    1  UNL1       -0.0035
     33 C          63.6692   84.0713   13.5781 C.ar    1  UNL1       -0.0204
     34 C          62.5928   83.5606   14.4894 C.ar    1  UNL1       -0.0035
     35 C          62.3237   84.2517   15.7933 C.ar    1  UNL1        0.0100
     36 N          62.5926   86.8356   18.7934 N.1     1  UNL1       -0.1908
     37 C          62.8617   86.1446   17.4896 C.1     1  UNL1        0.1004
@<TRIPOS>BOND
     1    36    37    3
     2    37    30    1
     3    30    31   ar
     4    31    32   ar
     5    32    33   ar
     6    33    29    1
     7    29    28    1
     8    28    24    1
     9    24    25   am
    10    25    26    2
    11     1    25    1
    12     1     2    1
    13     2     3    1
    14     3     4    1
    15     4     5    1
    16     5     7    1
    17     7     8   ar
    18     8     9   ar
    19     9    13    1
    20    13    14    1
    21    14    15    1
    22    15    16    1
    23    16    17    1
    24    17    18    1
    25     9    10   ar
    26    10    11   ar
    27    11    20    1
    28    20    21    1
    29    20    22    1
    30    20    23    1
    31    11    12   ar
    32     5     6    1
    33    33    34   ar
    34    34    35   ar
    35    35    30   ar
    36     6     1    1
    37    12     7   ar
    38    18    13    1
    39    24    27    1
    40    16    19    1
@<TRIPOS>MOLECULE
*****
 37 40 0 0 0
SMALL
GASTEIGER

@<TRIPOS>ATOM
      1 C          60.5344   88.1531    8.9884 C.3     1  UNL1        0.0963
      2 C          60.6529   86.6986    9.3353 C.3     1  UNL1        0.0126
      3 C          61.5647   86.2639   10.4442 C.3     1  UNL1        0.0220
      4 C          62.3580   87.2837   11.2062 C.3     1  UNL1        0.0922
      5 N          62.2395   88.7383   10.8594 N.pl3   1  UNL1       -0.2926
      6 C          61.3277   89.1730    9.7505 C.3     1  UNL1        0.1012
      7 C          63.0328   89.7581   11.6214 C.ar    1  UNL1        0.1361
      8 C          63.8814   90.7516   10.8846 C.ar    1  UNL1        0.0686
      9 C          64.6747   91.7714   11.6466 C.ar    1  UNL1        0.1362
     10 N          64.6194   91.7977   13.1454 N.ar    1  UNL1       -0.2083
     11 C          63.7708   90.8041   13.8822 C.ar    1  UNL1        0.2374
     12 N          62.9775   89.7843   13.1201 N.ar    1  UNL1       -0.2083
     13 N          65.5232   92.7650   10.9099 N.pl3   1  UNL1       -0.2903
     14 C          66.7622   92.3104   10.1970 C.3     1  UNL1        0.1093
     15 C          67.6108   93.3040    9.4603 C.3     1  UNL1        0.0904
     16 N          67.2204   94.7521    9.4365 N.3     1  UNL1       -0.2946
     17 C          65.9813   95.2067   10.1494 C.3     1  UNL1        0.0904
     18 C          65.1328   94.2131   10.8861 C.3     1  UNL1        0.1093
     19 H          67.1077   95.0105    8.4562 H       1  UNL1        0.1233
     20 C          63.7155   90.8303   15.3809 C.3     1  UNL1        0.4524
     21 F          63.6603   90.8566   16.8797 F       1  UNL1       -0.1632
     22 F          64.7895   91.8773   15.4022 F       1  UNL1       -0.1632
     23 F          62.6416   89.7834   15.3596 F       1  UNL1       -0.1632
     24 N          60.0111   89.7357    6.9955 N.am    1  UNL1       -0.3040
     25 C          59.6226   88.5878    7.8796 C.2     1  UNL1        0.2237
     26 O          58.3223   87.8747    7.6547 O.2     1  UNL1       -0.2751
     27 H          60.8646   90.2038    7.1431 H       1  UNL1        0.1494
     28 C          59.0993   90.1704    5.8866 C.3     1  UNL1        0.0941
     29 C          59.1674   91.5759    5.3671 C.3     1  UNL1        0.0476
     30 C          62.2251   92.6790    2.2553 C.ar    1  UNL1        0.0684
     31 C          62.5464   91.6385    3.2868 C.ar    1  UNL1        0.0100
     32 C          61.5272   91.2708    4.3241 C.ar    1  UNL1       -0.0035
     33 C          60.1866   91.9436    4.3298 C.ar    1  UNL1       -0.0204
     34 C          59.8652   92.9841    3.2983 C.ar    1  UNL1       -0.0035
     35 C          60.8844   93.3518    2.2610 C.ar    1  UNL1        0.0100
     36 N          64.2635   93.4143    0.1807 N.1     1  UNL1       -0.1908
     37 C          63.2443   93.0467    1.2180 C.1     1  UNL1        0.1004
@<TRIPOS>BOND
     1    36    37    3
     2    37    30    1
     3    30    31   ar
     4    31    32   ar
     5    32    33   ar
     6    33    29    1
     7    29    28    1
     8    28    24    1
     9    24    25   am
    10    25    26    2
    11     1    25    1
    12     1     2    1
    13     2     3    1
    14     3     4    1
    15     4     5    1
    16     5     7    1
    17     7     8   ar
    18     8     9   ar
    19     9    13    1
    20    13    14    1
    21    14    15    1
    22    15    16    1
    23    16    17    1
    24    17    18    1
    25     9    10   ar
    26    10    11   ar
    27    11    20    1
    28    20    21    1
    29    20    22    1
    30    20    23    1
    31    11    12   ar
    32     5     6    1
    33    33    34   ar
    34    34    35   ar
    35    35    30   ar
    36     6     1    1
    37    12     7   ar
    38    18    13    1
    39    24    27    1
    40    16    19    1
@<TRIPOS>MOLECULE
*****
 37 40 0 0 0
SMALL
GASTEIGER

@<TRIPOS>ATOM
      1 C          61.1131   88.2946   10.1711 C.3     1  UNL1        0.0963
      2 C          59.7278   88.6768   10.6009 C.3     1  UNL1        0.0126
      3 C          59.5256   89.8227   11.5475 C.3     1  UNL1        0.0220
      4 C          60.7087   90.5863   12.0644 C.3     1  UNL1        0.0922
      5 N          62.0941   90.2041   11.6346 N.pl3   1  UNL1       -0.2926
      6 C          62.2963   89.0582   10.6880 C.3     1  UNL1        0.1012
      7 C          63.2772   90.9677   12.1514 C.ar    1  UNL1        0.1361
      8 C          64.2093   91.6463   11.1919 C.ar    1  UNL1        0.0686
      9 C          65.3924   92.4099   11.7088 C.ar    1  UNL1        0.1362
     10 N          65.6434   92.4949   13.1852 N.ar    1  UNL1       -0.2083
     11 C          64.7112   91.8164   14.1448 C.ar    1  UNL1        0.2374
     12 N          63.5281   91.0527   13.6278 N.ar    1  UNL1       -0.2083
     13 N          66.3245   93.0884   10.7492 N.pl3   1  UNL1       -0.2903
     14 C          66.1103   94.5281   10.3868 C.3     1  UNL1        0.1093
     15 C          67.0424   95.2067    9.4273 C.3     1  UNL1        0.0904
     16 N          68.1887   94.4456    8.8302 N.3     1  UNL1       -0.2946
     17 C          68.4030   93.0058    9.1926 C.3     1  UNL1        0.0904
     18 C          67.4708   92.3272   10.1521 C.3     1  UNL1        0.1093
     19 H          69.0400   94.9442    9.0892 H       1  UNL1        0.1233
     20 C          64.9622   91.9014   15.6211 C.3     1  UNL1        0.4524
     21 F          65.2131   91.9864   17.0976 F       1  UNL1       -0.1632
     22 F          63.9360   90.8331   15.8571 F       1  UNL1       -0.1632
     23 F          65.9883   92.9697   15.3852 F       1  UNL1       -0.1632
     24 N          62.6985   86.6355    8.9527 N.am    1  UNL1       -0.3040
     25 C          61.3154   87.1487    9.2245 C.2     1  UNL1        0.2237
     26 O          60.1346   86.5160    8.5496 O.2     1  UNL1       -0.2751
     27 H          63.4735   87.0508    9.3957 H       1  UNL1        0.1494
     28 C          62.9007   85.4897    8.0061 C.3     1  UNL1        0.0941
     29 C          63.3759   84.1643    8.5235 C.3     1  UNL1        0.0476
     30 C          63.7425   83.4795   12.9559 C.ar    1  UNL1        0.0684
     31 C          62.7483   84.4719   12.4301 C.ar    1  UNL1        0.0100
     32 C          62.6261   84.7002   10.9526 C.ar    1  UNL1       -0.0035
     33 C          63.4981   83.9360   10.0010 C.ar    1  UNL1       -0.0204
     34 C          64.4923   82.9436   10.5268 C.ar    1  UNL1       -0.0035
     35 C          64.6145   82.7153   12.0043 C.ar    1  UNL1        0.0100
     36 N          63.9870   83.0229   15.9109 N.1     1  UNL1       -0.1908
     37 C          63.8648   83.2512   14.4334 C.1     1  UNL1        0.1004
@<TRIPOS>BOND
     1    36    37    3
     2    37    30    1
     3    30    31   ar
     4    31    32   ar
     5    32    33   ar
     6    33    29    1
     7    29    28    1
     8    28    24    1
     9    24    25   am
    10    25    26    2
    11     1    25    1
    12     1     2    1
    13     2     3    1
    14     3     4    1
    15     4     5    1
    16     5     7    1
    17     7     8   ar
    18     8     9   ar
    19     9    13    1
    20    13    14    1
    21    14    15    1
    22    15    16    1
    23    16    17    1
    24    17    18    1
    25     9    10   ar
    26    10    11   ar
    27    11    20    1
    28    20    21    1
    29    20    22    1
    30    20    23    1
    31    11    12   ar
    32     5     6    1
    33    33    34   ar
    34    34    35   ar
    35    35    30   ar
    36     6     1    1
    37    12     7   ar
    38    18    13    1
    39    24    27    1
    40    16    19    1
@<TRIPOS>MOLECULE
*****
 37 40 0 0 0
SMALL
GASTEIGER

@<TRIPOS>ATOM
      1 C          63.4689   85.6038   15.6352 C.3     1  UNL1        0.0963
      2 C          62.9231   85.8268   17.0145 C.3     1  UNL1        0.0126
      3 C          62.8282   87.2179   17.5677 C.3     1  UNL1        0.0220
      4 C          63.2792   88.3859   16.7417 C.3     1  UNL1        0.0922
      5 N          63.8251   88.1629   15.3624 N.pl3   1  UNL1       -0.2926
      6 C          63.9199   86.7719   14.8092 C.3     1  UNL1        0.1012
      7 C          64.2760   89.3309   14.5364 C.ar    1  UNL1        0.1361
      8 C          65.4693   90.1342   14.9617 C.ar    1  UNL1        0.0686
      9 C          65.9202   91.3022   14.1357 C.ar    1  UNL1        0.1362
     10 N          65.1780   91.6670   12.8843 N.ar    1  UNL1       -0.2083
     11 C          63.9847   90.8637   12.4589 C.ar    1  UNL1        0.2374
     12 N          63.5338   89.6956   13.2850 N.ar    1  UNL1       -0.2083
     13 N          67.1135   92.1055   14.5611 N.pl3   1  UNL1       -0.2903
     14 C          68.4342   91.9053   13.8789 C.3     1  UNL1        0.1093
     15 C          69.6275   92.7085   14.3042 C.3     1  UNL1        0.0904
     16 N          69.4999   93.7120   15.4118 N.3     1  UNL1       -0.2946
     17 C          68.1791   93.9122   16.0941 C.3     1  UNL1        0.0904
     18 C          66.9859   93.1090   15.6687 C.3     1  UNL1        0.1093
     19 H          69.7706   94.6154   15.0232 H       1  UNL1        0.1233
     20 C          63.2425   91.2284   11.2075 C.3     1  UNL1        0.4524
     21 F          62.5001   91.5931    9.9561 F       1  UNL1       -0.1632
     22 F          62.0152   90.5478   11.7371 F       1  UNL1       -0.1632
     23 F          64.4697   91.9090   10.6779 F       1  UNL1       -0.1632
     24 N          64.5001   83.9191   13.9475 N.am    1  UNL1       -0.3040
     25 C          63.5638   84.2128   15.0820 C.2     1  UNL1        0.2237
     26 O          62.7224   83.1155   15.6633 O.2     1  UNL1       -0.2751
     27 H          65.0523   84.6393   13.5659 H       1  UNL1        0.1494
     28 C          64.5949   82.5281   13.3943 C.3     1  UNL1        0.0941
     29 C          64.2178   82.2611   11.9672 C.3     1  UNL1        0.0476
     30 C          62.1143   85.4320    9.5650 C.ar    1  UNL1        0.0684
     31 C          63.1627   84.5747    8.9202 C.ar    1  UNL1        0.0100
     32 C          63.8639   83.5177    9.7210 C.ar    1  UNL1       -0.0035
     33 C          63.5166   83.3181   11.1665 C.ar    1  UNL1       -0.0204
     34 C          62.4682   84.1754   11.8112 C.ar    1  UNL1       -0.0035
     35 C          61.7670   85.2323   11.0104 C.ar    1  UNL1        0.0100
     36 N          60.7120   87.5459    7.9634 N.1     1  UNL1       -0.1908
     37 C          61.4131   86.4889    8.7642 C.1     1  UNL1        0.1004
@<TRIPOS>BOND
     1    36    37    3
     2    37    30    1
     3    30    31   ar
     4    31    32   ar
     5    32    33   ar
     6    33    29    1
     7    29    28    1
     8    28    24    1
     9    24    25   am
    10    25    26    2
    11     1    25    1
    12     1     2    1
    13     2     3    1
    14     3     4    1
    15     4     5    1
    16     5     7    1
    17     7     8   ar
    18     8     9   ar
    19     9    13    1
    20    13    14    1
    21    14    15    1
    22    15    16    1
    23    16    17    1
    24    17    18    1
    25     9    10   ar
    26    10    11   ar
    27    11    20    1
    28    20    21    1
    29    20    22    1
    30    20    23    1
    31    11    12   ar
    32     5     6    1
    33    33    34   ar
    34    34    35   ar
    35    35    30   ar
    36     6     1    1
    37    12     7   ar
    38    18    13    1
    39    24    27    1
    40    16    19    1
@<TRIPOS>MOLECULE
*****
 37 40 0 0 0
SMALL
GASTEIGER

@<TRIPOS>ATOM
      1 C          63.7547   83.0524   11.8949 C.3     1  UNL1        0.0963
      2 C          64.0441   81.8115   12.6862 C.3     1  UNL1        0.0126
      3 C          64.2332   81.8963   14.1718 C.3     1  UNL1        0.0220
      4 C          64.1329   83.2221   14.8662 C.3     1  UNL1        0.0922
      5 N          63.8435   84.4632   14.0749 N.pl3   1  UNL1       -0.2926
      6 C          63.6543   84.3783   12.5893 C.3     1  UNL1        0.1012
      7 C          63.7431   85.7890   14.7692 C.ar    1  UNL1        0.1361
      8 C          64.0521   87.0523   14.0218 C.ar    1  UNL1        0.0686
      9 C          63.9518   88.3781   14.7161 C.ar    1  UNL1        0.1362
     10 N          63.5425   88.4406   16.1579 N.ar    1  UNL1       -0.2083
     11 C          63.2335   87.1773   16.9053 C.ar    1  UNL1        0.2374
     12 N          63.3338   85.8514   16.2109 N.ar    1  UNL1       -0.2083
     13 N          64.2607   89.6414   13.9688 N.pl3   1  UNL1       -0.2903
     14 C          63.5076   89.9744   12.7151 C.3     1  UNL1        0.1093
     15 C          63.8166   91.2377   11.9677 C.3     1  UNL1        0.0904
     16 N          64.8787   92.1680   12.4740 N.3     1  UNL1       -0.2946
     17 C          65.6319   91.8350   13.7278 C.3     1  UNL1        0.0904
     18 C          65.3229   90.5717   14.4752 C.3     1  UNL1        0.1093
     19 H          64.4294   93.0702   12.6312 H       1  UNL1        0.1233
     20 C          62.8242   87.2398   18.3470 C.3     1  UNL1        0.4524
     21 F          62.4149   87.3023   19.7887 F       1  UNL1       -0.1632
     22 F          63.2380   88.6805   18.4020 F       1  UNL1       -0.1632
     23 F          62.4104   85.7991   18.2919 F       1  UNL1       -0.1632
     24 N          63.4076   84.2210    9.6006 N.am    1  UNL1       -0.3040
     25 C          63.5655   82.9676   10.4093 C.2     1  UNL1        0.2237
     26 O          63.5344   81.6294    9.7325 O.2     1  UNL1       -0.2751
     27 H          63.4281   85.0994   10.0448 H       1  UNL1        0.1494
     28 C          63.2185   84.1362    8.1150 C.3     1  UNL1        0.0941
     29 C          62.2475   85.0509    7.4291 C.3     1  UNL1        0.0476
     30 C          60.5120   88.5611    9.6465 C.ar    1  UNL1        0.0684
     31 C          59.6879   87.8393    8.6219 C.ar    1  UNL1        0.0100
     32 C          60.2664   86.6693    7.8828 C.ar    1  UNL1       -0.0035
     33 C          61.6690   86.2210    8.1682 C.ar    1  UNL1       -0.0204
     34 C          62.4932   86.9427    9.1928 C.ar    1  UNL1       -0.0035
     35 C          61.9147   88.1128    9.9319 C.ar    1  UNL1        0.0100
     36 N          59.3550   90.9012   11.1247 N.1     1  UNL1       -0.1908
     37 C          59.9335   89.7311   10.3856 C.1     1  UNL1        0.1004
@<TRIPOS>BOND
     1    36    37    3
     2    37    30    1
     3    30    31   ar
     4    31    32   ar
     5    32    33   ar
     6    33    29    1
     7    29    28    1
     8    28    24    1
     9    24    25   am
    10    25    26    2
    11     1    25    1
    12     1     2    1
    13     2     3    1
    14     3     4    1
    15     4     5    1
    16     5     7    1
    17     7     8   ar
    18     8     9   ar
    19     9    13    1
    20    13    14    1
    21    14    15    1
    22    15    16    1
    23    16    17    1
    24    17    18    1
    25     9    10   ar
    26    10    11   ar
    27    11    20    1
    28    20    21    1
    29    20    22    1
    30    20    23    1
    31    11    12   ar
    32     5     6    1
    33    33    34   ar
    34    34    35   ar
    35    35    30   ar
    36     6     1    1
    37    12     7   ar
    38    18    13    1
    39    24    27    1
    40    16    19    1
@<TRIPOS>MOLECULE
*****
 37 40 0 0 0
SMALL
GASTEIGER

@<TRIPOS>ATOM
      1 C          63.1449   84.1302   10.0842 C.3     1  UNL1        0.0963
      2 C          63.0245   83.9840    8.5963 C.3     1  UNL1        0.0126
      3 C          62.5663   85.1443    7.7633 C.3     1  UNL1        0.0220
      4 C          62.2285   86.4508    8.4184 C.3     1  UNL1        0.0922
      5 N          62.3490   86.5969    9.9065 N.pl3   1  UNL1       -0.2926
      6 C          62.8072   85.4366   10.7394 C.3     1  UNL1        0.1012
      7 C          62.0112   87.9034   10.5615 C.ar    1  UNL1        0.1361
      8 C          63.0877   88.9177   10.8109 C.ar    1  UNL1        0.0686
      9 C          62.7500   90.2241   11.4660 C.ar    1  UNL1        0.1362
     10 N          61.3356   90.5162   11.8717 N.ar    1  UNL1       -0.2083
     11 C          60.2592   89.5019   11.6222 C.ar    1  UNL1        0.2374
     12 N          60.5970   88.1954   10.9671 N.ar    1  UNL1       -0.2083
     13 N          63.8264   91.2385   11.7154 N.pl3   1  UNL1       -0.2903
     14 C          64.3010   92.1188   10.5975 C.3     1  UNL1        0.1093
     15 C          65.3775   93.1332   10.8469 C.3     1  UNL1        0.0904
     16 N          65.9794   93.2673   12.2143 N.3     1  UNL1       -0.2946
     17 C          65.5048   92.3869   13.3323 C.3     1  UNL1        0.0904
     18 C          64.4284   91.3726   13.0829 C.3     1  UNL1        0.1093
     19 H          65.8235   94.2305   12.5115 H       1  UNL1        0.1233
     20 C          58.8449   89.7939   12.0279 C.3     1  UNL1        0.4524
     21 F          57.4306   90.0860   12.4335 F       1  UNL1       -0.1632
     22 F          58.9588   91.1675   11.4362 F       1  UNL1       -0.1632
     23 F          58.7310   88.4203   12.6196 F       1  UNL1       -0.1632
     24 N          62.5994   82.1306   11.6508 N.am    1  UNL1       -0.3040
     25 C          63.6031   82.9699   10.9171 C.2     1  UNL1        0.2237
     26 O          65.0650   82.6488   11.0164 O.2     1  UNL1       -0.2751
     27 H          61.6399   82.3413   11.5857 H       1  UNL1        0.1494
     28 C          63.0576   80.9703   12.4837 C.3     1  UNL1        0.0941
     29 C          63.6290   81.2072   13.8502 C.3     1  UNL1        0.0476
     30 C          63.3638   85.2905   15.7228 C.ar    1  UNL1        0.0684
     31 C          64.6475   84.8356   15.0943 C.ar    1  UNL1        0.0100
     32 C          64.7359   83.4745   14.4701 C.ar    1  UNL1       -0.0035
     33 C          63.5406   82.5683   14.4744 C.ar    1  UNL1       -0.0204
     34 C          62.2569   83.0232   15.1029 C.ar    1  UNL1       -0.0035
     35 C          62.1685   84.3843   15.7272 C.ar    1  UNL1        0.0100
     36 N          63.1869   88.0126   16.9713 N.1     1  UNL1       -0.1908
     37 C          63.2754   86.6516   16.3471 C.1     1  UNL1        0.1004
@<TRIPOS>BOND
     1    36    37    3
     2    37    30    1
     3    30    31   ar
     4    31    32   ar
     5    32    33   ar
     6    33    29    1
     7    29    28    1
     8    28    24    1
     9    24    25   am
    10    25    26    2
    11     1    25    1
    12     1     2    1
    13     2     3    1
    14     3     4    1
    15     4     5    1
    16     5     7    1
    17     7     8   ar
    18     8     9   ar
    19     9    13    1
    20    13    14    1
    21    14    15    1
    22    15    16    1
    23    16    17    1
    24    17    18    1
    25     9    10   ar
    26    10    11   ar
    27    11    20    1
    28    20    21    1
    29    20    22    1
    30    20    23    1
    31    11    12   ar
    32     5     6    1
    33    33    34   ar
    34    34    35   ar
    35    35    30   ar
    36     6     1    1
    37    12     7   ar
    38    18    13    1
    39    24    27    1
    40    16    19    1
@<TRIPOS>MOLECULE
*****
 37 40 0 0 0
SMALL
GASTEIGER

@<TRIPOS>ATOM
      1 C          59.4858   88.8559    7.1088 C.3     1  UNL1        0.0963
      2 C          58.9997   87.4952    6.7060 C.3     1  UNL1        0.0126
      3 C          59.4117   86.2877    7.4948 C.3     1  UNL1        0.0220
      4 C          60.3098   86.4409    8.6864 C.3     1  UNL1        0.0922
      5 N          60.7960   87.8016    9.0892 N.pl3   1  UNL1       -0.2926
      6 C          60.3839   89.0091    8.3004 C.3     1  UNL1        0.1012
      7 C          61.6941   87.9547   10.2808 C.ar    1  UNL1        0.1361
      8 C          62.0595   86.7550   11.1037 C.ar    1  UNL1        0.0686
      9 C          62.9577   86.9082   12.2952 C.ar    1  UNL1        0.1362
     10 N          63.4904   88.2611   12.6640 N.ar    1  UNL1       -0.2083
     11 C          63.1249   89.4608   11.8411 C.ar    1  UNL1        0.2374
     12 N          62.2267   89.3076   10.6495 N.ar    1  UNL1       -0.2083
     13 N          63.3231   85.7085   13.1181 N.pl3   1  UNL1       -0.2903
     14 C          62.9245   84.3363   12.6618 C.3     1  UNL1        0.1093
     15 C          63.2900   83.1366   13.4846 C.3     1  UNL1        0.0904
     16 N          64.0541   83.3090   14.7638 N.3     1  UNL1       -0.2946
     17 C          64.4527   84.6812   15.2202 C.3     1  UNL1        0.0904
     18 C          64.0873   85.8809   14.3973 C.3     1  UNL1        0.1093
     19 H          64.9141   82.7691   14.6681 H       1  UNL1        0.1233
     20 C          63.6575   90.8137   12.2098 C.3     1  UNL1        0.4524
     21 F          64.1902   92.1666   12.5786 F       1  UNL1       -0.1632
     22 F          64.3205   90.2232   13.4188 F       1  UNL1       -0.1632
     23 F          62.9945   91.4042   11.0008 F       1  UNL1       -0.1632
     24 N          60.1035   90.8592    5.5741 N.am    1  UNL1       -0.3040
     25 C          59.0737   90.0634    6.3200 C.2     1  UNL1        0.2237
     26 O          57.6320   90.4751    6.2772 O.2     1  UNL1       -0.2751
     27 H          61.0498   90.5889    5.6022 H       1  UNL1        0.1494
     28 C          59.6915   92.0667    4.7853 C.3     1  UNL1        0.0941
     29 C          59.8033   92.0594    3.2895 C.3     1  UNL1        0.0476
     30 C          63.2962   94.0665    1.2844 C.ar    1  UNL1        0.0684
     31 C          63.5080   92.8150    2.0836 C.ar    1  UNL1        0.0100
     32 C          62.3436   92.1459    2.7520 C.ar    1  UNL1       -0.0035
     33 C          60.9676   92.7284    2.6211 C.ar    1  UNL1       -0.0204
     34 C          60.7559   93.9800    1.8219 C.ar    1  UNL1       -0.0035
     35 C          61.9202   94.6490    1.1535 C.ar    1  UNL1        0.0100
     36 N          65.6249   95.4046   -0.0524 N.1     1  UNL1       -0.1908
     37 C          64.4606   94.7356    0.6160 C.1     1  UNL1        0.1004
@<TRIPOS>BOND
     1    36    37    3
     2    37    30    1
     3    30    31   ar
     4    31    32   ar
     5    32    33   ar
     6    33    29    1
     7    29    28    1
     8    28    24    1
     9    24    25   am
    10    25    26    2
    11     1    25    1
    12     1     2    1
    13     2     3    1
    14     3     4    1
    15     4     5    1
    16     5     7    1
    17     7     8   ar
    18     8     9   ar
    19     9    13    1
    20    13    14    1
    21    14    15    1
    22    15    16    1
    23    16    17    1
    24    17    18    1
    25     9    10   ar
    26    10    11   ar
    27    11    20    1
    28    20    21    1
    29    20    22    1
    30    20    23    1
    31    11    12   ar
    32     5     6    1
    33    33    34   ar
    34    34    35   ar
    35    35    30   ar
    36     6     1    1
    37    12     7   ar
    38    18    13    1
    39    24    27    1
    40    16    19    1
@<TRIPOS>MOLECULE
*****
 37 40 0 0 0
SMALL
GASTEIGER

@<TRIPOS>ATOM
      1 C          60.3282   92.3739    3.0997 C.3     1  UNL1        0.0963
      2 C          61.8279   92.3800    3.0747 C.3     1  UNL1        0.0126
      3 C          62.5555   92.7790    1.8252 C.3     1  UNL1        0.0220
      4 C          61.7834   93.1719    0.6007 C.3     1  UNL1        0.0922
      5 N          60.2836   93.1658    0.6256 N.pl3   1  UNL1       -0.2926
      6 C          59.5560   92.7668    1.8752 C.3     1  UNL1        0.1012
      7 C          59.5115   93.5587   -0.5989 C.ar    1  UNL1        0.1361
      8 C          60.2244   93.7561   -1.9038 C.ar    1  UNL1        0.0686
      9 C          59.4523   94.1490   -3.1283 C.ar    1  UNL1        0.1362
     10 N          57.9672   94.3445   -3.0479 N.ar    1  UNL1       -0.2083
     11 C          57.2543   94.1471   -1.7430 C.ar    1  UNL1        0.2374
     12 N          58.0265   93.7542   -0.5184 N.ar    1  UNL1       -0.2083
     13 N          60.1652   94.3464   -4.4332 N.pl3   1  UNL1       -0.2903
     14 C          59.3788   94.5250   -5.6979 C.3     1  UNL1        0.1093
     15 C          60.0917   94.7224   -7.0028 C.3     1  UNL1        0.0904
     16 N          61.5910   94.7413   -7.0430 N.3     1  UNL1       -0.2946
     17 C          62.3775   94.5627   -5.7782 C.3     1  UNL1        0.0904
     18 C          61.6646   94.3653   -4.4733 C.3     1  UNL1        0.1093
     19 H          61.8638   95.6428   -7.4346 H       1  UNL1        0.1233
     20 C          55.7693   94.3426   -1.6626 C.3     1  UNL1        0.4524
     21 F          54.2843   94.5381   -1.5821 F       1  UNL1       -0.1632
     22 F          55.9805   95.7397   -1.1593 F       1  UNL1       -0.1632
     23 F          55.5582   92.9454   -2.1659 F       1  UNL1       -0.1632
     24 N          60.1091   90.8355    5.1819 N.am    1  UNL1       -0.3040
     25 C          59.6005   91.9749    4.3493 C.2     1  UNL1        0.2237
     26 O          58.3644   92.7152    4.7661 O.2     1  UNL1       -0.2751
     27 H          60.9204   90.3496    4.9083 H       1  UNL1        0.1494
     28 C          59.3814   90.4365    6.4314 C.3     1  UNL1        0.0941
     29 C          59.1142   88.9878    6.7135 C.3     1  UNL1        0.0476
     30 C          61.1904   86.9428   10.1424 C.ar    1  UNL1        0.0684
     31 C          60.6498   86.1322    9.0020 C.ar    1  UNL1        0.0100
     32 C          59.9578   86.8138    7.8590 C.ar    1  UNL1       -0.0035
     33 C          59.8062   88.3061    7.8565 C.ar    1  UNL1       -0.0204
     34 C          60.3468   89.1167    8.9969 C.ar    1  UNL1       -0.0035
     35 C          61.0388   88.4351   10.1399 C.ar    1  UNL1        0.0100
     36 N          62.5745   85.5795   12.4284 N.1     1  UNL1       -0.1908
     37 C          61.8824   86.2611   11.2854 C.1     1  UNL1        0.1004
@<TRIPOS>BOND
     1    36    37    3
     2    37    30    1
     3    30    31   ar
     4    31    32   ar
     5    32    33   ar
     6    33    29    1
     7    29    28    1
     8    28    24    1
     9    24    25   am
    10    25    26    2
    11     1    25    1
    12     1     2    1
    13     2     3    1
    14     3     4    1
    15     4     5    1
    16     5     7    1
    17     7     8   ar
    18     8     9   ar
    19     9    13    1
    20    13    14    1
    21    14    15    1
    22    15    16    1
    23    16    17    1
    24    17    18    1
    25     9    10   ar
    26    10    11   ar
    27    11    20    1
    28    20    21    1
    29    20    22    1
    30    20    23    1
    31    11    12   ar
    32     5     6    1
    33    33    34   ar
    34    34    35   ar
    35    35    30   ar
    36     6     1    1
    37    12     7   ar
    38    18    13    1
    39    24    27    1
    40    16    19    1
