@<TRIPOS>MOLECULE
*****
 57 64 0 0 0
SMALL
GASTEIGER

@<TRIPOS>ATOM
      1 C          62.6718   85.1576   13.0507 C.ar    1  UNL1        0.0558
      2 C          62.1270   83.8395   13.5150 C.ar    1  UNL1        0.0413
      3 C          62.3110   83.4122   14.9410 C.ar    1  UNL1        0.1387
      4 C          63.0399   84.3030   15.9028 C.ar    1  UNL1        0.0382
      5 C          63.5847   85.6212   15.4386 C.ar    1  UNL1        0.0179
      6 C          63.4007   86.0485   14.0126 C.ar    1  UNL1        0.0539
      7 N          61.6300   86.6787    9.6351 N.ar    1  UNL1       -0.1285
      8 N          62.7793   85.8062    9.2254 N.ar    1  UNL1       -0.0406
      9 N          63.3094   85.1302   10.4550 N.ar    1  UNL1       -0.1074
     10 C          62.4878   85.5849   11.6247 C.ar    1  UNL1        0.2075
     11 N          61.4499   86.5419   11.1180 N.ar    1  UNL1       -0.1253
     12 C          59.1569   89.2544    6.8966 C.ar    1  UNL1       -0.0207
     13 C          59.9913   89.8871    7.9707 C.ar    1  UNL1       -0.0026
     14 C          60.8157   89.0285    8.8835 C.ar    1  UNL1        0.0206
     15 C          60.8057   87.5373    8.7223 C.ar    1  UNL1        0.1045
     16 C          59.9713   86.9046    7.6483 C.ar    1  UNL1        0.0206
     17 C          59.1469   87.7631    6.7355 C.ar    1  UNL1       -0.0026
     18 C          58.3326   90.1130    5.9838 C.3     1  UNL1        0.0437
     19 C          58.7594   91.5206    5.6898 C.3     1  UNL1        0.0771
     20 C          62.7156   93.5469    0.4465 C.ar    1  UNL1        0.1721
     21 C          62.9800   92.5744    1.5575 C.ar    1  UNL1        0.0356
     22 C          61.9249   92.3109    2.5906 C.ar    1  UNL1       -0.0202
     23 C          60.6053   93.0200    2.5127 C.ar    1  UNL1       -0.0068
     24 C          60.3410   93.9925    1.4016 C.ar    1  UNL1        0.0368
     25 C          61.3961   94.2559    0.3686 C.ar    1  UNL1        0.1721
     26 C          59.5502   92.7565    3.5457 C.3     1  UNL1        0.0990
     27 N          59.8146   91.7841    4.6567 N.3     1  UNL1       -0.2683
     28 C          61.1341   91.0750    4.7346 C.3     1  UNL1        0.0771
     29 C          62.1892   91.3384    3.7016 C.3     1  UNL1        0.0435
     30 C          64.7958   94.8809   -0.3557 C.3     1  UNL1        0.2526
     31 O          63.7708   93.8103   -0.5866 O.3     1  UNL1       -0.4684
     32 O          61.1318   95.2284   -0.7425 O.3     1  UNL1       -0.4684
     33 C          61.5524   96.6613   -0.6009 C.3     1  UNL1        0.2526
     34 N          63.9456   87.3667   13.5483 N.am    1  UNL1       -0.2778
     35 C          63.9804   88.5363   14.4869 C.2     1  UNL1        0.2843
     36 O          63.4703   88.3877   15.8896 O.2     1  UNL1       -0.2665
     37 H          64.2804   87.4642   12.6276 H       1  UNL1        0.1553
     38 C          64.5252   89.8545   14.0227 C.ar    1  UNL1        0.2017
     39 C          65.3015   90.7206   14.9699 C.ar    1  UNL1        0.0843
     40 C          65.8463   92.0388   14.5058 C.ar    1  UNL1        0.2018
     41 O          66.6226   92.9049   15.4531 O.2     1  UNL1       -0.2864
     42 C          65.6149   92.4909   13.0944 C.ar    1  UNL1        0.0735
     43 C          66.1598   93.8092   12.6303 C.ar    1  UNL1        0.0062
     44 C          65.9284   94.2613   11.2188 C.ar    1  UNL1        0.0003
     45 C          65.1521   93.3952   10.2716 C.ar    1  UNL1        0.0031
     46 C          64.6072   92.0769   10.7358 C.ar    1  UNL1        0.0376
     47 C          64.8386   91.6248   12.1472 C.ar    1  UNL1        0.1485
     48 O          64.2938   90.3066   12.6113 O.2     1  UNL1       -0.4487
     49 O          61.7661   82.0940   15.4052 O.3     1  UNL1       -0.4751
     50 C          61.3790   81.0475   14.4026 C.3     1  UNL1        0.2101
     51 C          62.4396   80.3167   13.6337 C.3     1  UNL1        0.0752
     52 C          63.1860   81.0154   12.5362 C.ar    1  UNL1        0.0007
     53 C          62.7071   80.9102   11.1185 C.ar    1  UNL1       -0.0010
     54 C          63.4534   81.6089   10.0210 C.ar    1  UNL1        0.0204
     55 C          64.6787   82.4128   10.3409 C.ar    1  UNL1        0.0989
     56 N          65.1576   82.5181   11.7585 N.ar    1  UNL1       -0.2426
     57 C          64.4112   81.8193   12.8561 C.ar    1  UNL1        0.0947
@<TRIPOS>BOND
     1    30    31    1
     2    31    20    1
     3    20    21   ar
     4    21    22   ar
     5    22    23   ar
     6    23    24   ar
     7    24    25   ar
     8    25    32    1
     9    32    33    1
    10    23    26    1
    11    26    27    1
    12    27    19    1
    13    19    18    1
    14    18    12    1
    15    12    13   ar
    16    13    14   ar
    17    14    15   ar
    18    15     7    1
    19     7     8   ar
    20     8     9   ar
    21     9    10   ar
    22    10     1    1
    23     1     2   ar
    24     2     3   ar
    25     3    49    1
    26    49    50    1
    27    50    51    1
    28    51    52    1
    29    52    53   ar
    30    53    54   ar
    31    54    55   ar
    32    55    56   ar
    33    56    57   ar
    34     3     4   ar
    35     4     5   ar
    36     5     6   ar
    37     6    34    1
    38    34    35   am
    39    35    36    2
    40    35    38    1
    41    38    39   ar
    42    39    40   ar
    43    40    41    2
    44    40    42   ar
    45    42    43   ar
    46    43    44   ar
    47    44    45   ar
    48    45    46   ar
    49    46    47   ar
    50    47    48   ar
    51    10    11   ar
    52    15    16   ar
    53    16    17   ar
    54    27    28    1
    55    28    29    1
    56    25    20   ar
    57    17    12   ar
    58    29    22    1
    59    11     7   ar
    60     6     1   ar
    61    48    38   ar
    62    57    52   ar
    63    47    42   ar
    64    34    37    1
@<TRIPOS>MOLECULE
*****
 57 64 0 0 0
SMALL
GASTEIGER

@<TRIPOS>ATOM
      1 C          62.5989   84.8413   12.9992 C.ar    1  UNL1        0.0558
      2 C          62.0580   83.5092   13.4268 C.ar    1  UNL1        0.0413
      3 C          62.2288   83.0505   14.8446 C.ar    1  UNL1        0.1387
      4 C          62.9406   83.9238   15.8349 C.ar    1  UNL1        0.0382
      5 C          63.4815   85.2559   15.4073 C.ar    1  UNL1        0.0179
      6 C          63.3107   85.7146   13.9895 C.ar    1  UNL1        0.0539
      7 N          61.5960   86.4465    9.6105 N.ar    1  UNL1       -0.1285
      8 N          62.7343   85.5656    9.1883 N.ar    1  UNL1       -0.0406
      9 N          63.2486   84.8570   10.4063 N.ar    1  UNL1       -0.1074
     10 C          62.4281   85.3001   11.5813 C.ar    1  UNL1        0.2075
     11 N          61.4068   86.2824   11.0895 N.ar    1  UNL1       -0.1253
     12 C          59.1743   89.1134    6.9138 C.ar    1  UNL1       -0.0207
     13 C          59.9861   89.7093    8.0255 C.ar    1  UNL1       -0.0026
     14 C          60.7934   88.8202    8.9244 C.ar    1  UNL1        0.0206
     15 C          60.7888   87.3354    8.7116 C.ar    1  UNL1        0.1045
     16 C          59.9770   86.7396    7.5999 C.ar    1  UNL1        0.0206
     17 C          59.1697   87.6285    6.7010 C.ar    1  UNL1       -0.0026
     18 C          58.3670   90.0023    6.0148 C.3     1  UNL1        0.0437
     19 C          58.8006   91.4179    5.7738 C.3     1  UNL1        0.0771
     20 C          62.4744   93.5834    0.3826 C.ar    1  UNL1        0.1721
     21 C          62.8231   92.6353    1.4915 C.ar    1  UNL1        0.0356
     22 C          61.8175   92.3309    2.5621 C.ar    1  UNL1       -0.0202
     23 C          60.4632   92.9747    2.5238 C.ar    1  UNL1       -0.0068
     24 C          60.1145   93.9227    1.4149 C.ar    1  UNL1        0.0368
     25 C          61.1201   94.2271    0.3443 C.ar    1  UNL1        0.1721
     26 C          59.4576   92.6703    3.5943 C.3     1  UNL1        0.0990
     27 N          59.8063   91.7223    4.7032 N.3     1  UNL1       -0.2683
     28 C          61.1606   91.0786    4.7415 C.3     1  UNL1        0.0771
     29 C          62.1662   91.3829    3.6709 C.3     1  UNL1        0.0435
     30 C          64.6384   94.7940   -0.3931 C.3     1  UNL1        0.2526
     31 O          63.4800   93.8877   -0.6880 O.3     1  UNL1       -0.4684
     32 O          60.7714   95.1752   -0.7646 O.3     1  UNL1       -0.4684
     33 C          60.4307   94.6445   -2.1256 C.3     1  UNL1        0.2526
     34 N          63.8516   87.0468   13.5619 N.am    1  UNL1       -0.2778
     35 C          63.8070   88.2123   14.5052 C.2     1  UNL1        0.2843
     36 O          63.2214   88.0456   15.8760 O.2     1  UNL1       -0.2665
     37 H          64.2360   87.1562   12.6621 H       1  UNL1        0.1553
     38 C          64.3479   89.5444   14.0776 C.ar    1  UNL1        0.2017
     39 C          63.9479   90.1265   12.7543 C.ar    1  UNL1        0.0843
     40 C          64.4888   91.4586   12.3267 C.ar    1  UNL1        0.2018
     41 O          64.0889   92.0408   11.0033 O.2     1  UNL1       -0.2864
     42 C          65.4296   92.2086   13.2225 C.ar    1  UNL1        0.0735
     43 C          65.9705   93.5408   12.7948 C.ar    1  UNL1        0.0062
     44 C          66.9114   94.2908   13.6906 C.ar    1  UNL1        0.0003
     45 C          67.3113   93.7087   15.0139 C.ar    1  UNL1        0.0031
     46 C          66.7704   92.3765   15.4415 C.ar    1  UNL1        0.0376
     47 C          65.8296   91.6265   14.5458 C.ar    1  UNL1        0.1485
     48 O          65.2887   90.2944   14.9734 O.2     1  UNL1       -0.4487
     49 O          61.6879   81.7183   15.2722 O.3     1  UNL1       -0.4751
     50 C          61.2610   80.7161   14.2409 C.3     1  UNL1        0.2101
     51 C          62.2909   80.0119   13.4081 C.3     1  UNL1        0.0752
     52 C          63.1064   80.7835   12.4134 C.ar    1  UNL1        0.0007
     53 C          62.7342   80.7619   10.9604 C.ar    1  UNL1       -0.0010
     54 C          63.5496   81.5335    9.9657 C.ar    1  UNL1        0.0204
     55 C          64.7375   82.3267   10.4239 C.ar    1  UNL1        0.0989
     56 N          65.1097   82.3483   11.8768 N.ar    1  UNL1       -0.2426
     57 C          64.2942   81.5767   12.8715 C.ar    1  UNL1        0.0947
@<TRIPOS>BOND
     1    30    31    1
     2    31    20    1
     3    20    21   ar
     4    21    22   ar
     5    22    23   ar
     6    23    24   ar
     7    24    25   ar
     8    25    32    1
     9    32    33    1
    10    23    26    1
    11    26    27    1
    12    27    19    1
    13    19    18    1
    14    18    12    1
    15    12    13   ar
    16    13    14   ar
    17    14    15   ar
    18    15     7    1
    19     7     8   ar
    20     8     9   ar
    21     9    10   ar
    22    10     1    1
    23     1     2   ar
    24     2     3   ar
    25     3    49    1
    26    49    50    1
    27    50    51    1
    28    51    52    1
    29    52    53   ar
    30    53    54   ar
    31    54    55   ar
    32    55    56   ar
    33    56    57   ar
    34     3     4   ar
    35     4     5   ar
    36     5     6   ar
    37     6    34    1
    38    34    35   am
    39    35    36    2
    40    35    38    1
    41    38    39   ar
    42    39    40   ar
    43    40    41    2
    44    40    42   ar
    45    42    43   ar
    46    43    44   ar
    47    44    45   ar
    48    45    46   ar
    49    46    47   ar
    50    47    48   ar
    51    10    11   ar
    52    15    16   ar
    53    16    17   ar
    54    27    28    1
    55    28    29    1
    56    25    20   ar
    57    17    12   ar
    58    29    22    1
    59    11     7   ar
    60     6     1   ar
    61    48    38   ar
    62    57    52   ar
    63    47    42   ar
    64    34    37    1
@<TRIPOS>MOLECULE
*****
 57 64 0 0 0
SMALL
GASTEIGER

@<TRIPOS>ATOM
      1 C          63.1062   88.2570   12.8712 C.ar    1  UNL1        0.0558
      2 C          63.2015   89.6745   13.3524 C.ar    1  UNL1        0.0413
      3 C          63.9985   89.9973   14.5815 C.ar    1  UNL1        0.1387
      4 C          64.7002   88.9025   15.3294 C.ar    1  UNL1        0.0382
      5 C          64.6048   87.4851   14.8481 C.ar    1  UNL1        0.0179
      6 C          63.8078   87.1623   13.6191 C.ar    1  UNL1        0.0539
      7 N          61.0105   88.1697    9.6053 N.ar    1  UNL1       -0.1285
      8 N          61.1550   86.7053    9.8962 N.ar    1  UNL1       -0.0406
      9 N          61.9577   86.5597   11.1550 N.ar    1  UNL1       -0.1074
     10 C          62.3092   87.9342   11.6421 C.ar    1  UNL1        0.2075
     11 N          61.7238   88.9292   10.6844 N.ar    1  UNL1       -0.1253
     12 C          58.8213   89.9684    6.1093 C.ar    1  UNL1       -0.0207
     13 C          58.4706   88.5897    6.5850 C.ar    1  UNL1       -0.0026
     14 C          59.2004   87.9901    7.7504 C.ar    1  UNL1        0.0206
     15 C          60.2808   88.7692    8.4400 C.ar    1  UNL1        0.1045
     16 C          60.6315   90.1479    7.9644 C.ar    1  UNL1        0.0206
     17 C          59.9018   90.7475    6.7991 C.ar    1  UNL1       -0.0026
     18 C          58.0916   90.5680    4.9440 C.3     1  UNL1        0.0437
     19 C          58.3987   91.9699    4.5076 C.3     1  UNL1        0.0771
     20 C          63.1426   93.8518   -0.0971 C.ar    1  UNL1        0.1721
     21 C          63.2680   93.0778    1.1816 C.ar    1  UNL1        0.0356
     22 C          62.0507   92.8008    2.0132 C.ar    1  UNL1       -0.0202
     23 C          60.7079   93.2979    1.5659 C.ar    1  UNL1       -0.0068
     24 C          60.5826   94.0720    0.2872 C.ar    1  UNL1        0.0368
     25 C          61.7999   94.3489   -0.5443 C.ar    1  UNL1        0.1721
     26 C          59.4906   93.0209    2.3974 C.3     1  UNL1        0.0990
     27 N          59.6160   92.2469    3.6761 N.3     1  UNL1       -0.2683
     28 C          60.9588   91.7498    4.1233 C.3     1  UNL1        0.0771
     29 C          62.1761   92.0267    3.2918 C.3     1  UNL1        0.0435
     30 C          65.0904   95.4303   -0.7786 C.3     1  UNL1        0.2526
     31 O          64.3600   94.1288   -0.9286 O.3     1  UNL1       -0.4684
     32 O          61.6745   95.1230   -1.8230 O.3     1  UNL1       -0.4684
     33 C          61.5504   94.3973   -3.1299 C.3     1  UNL1        0.2526
     34 N          63.7125   85.7447   13.1378 N.am    1  UNL1       -0.2778
     35 C          62.9983   84.7180   13.9659 C.2     1  UNL1        0.2843
     36 O          62.3795   85.1088   15.2752 O.2     1  UNL1       -0.2665
     37 H          64.1187   85.4883   12.2784 H       1  UNL1        0.1553
     38 C          62.9030   83.3005   13.4847 C.ar    1  UNL1        0.2017
     39 C          62.6630   82.1904   14.4646 C.ar    1  UNL1        0.0843
     40 C          62.5677   80.7729   13.9835 C.ar    1  UNL1        0.2018
     41 O          62.3277   79.6627   14.9634 O.2     1  UNL1       -0.2864
     42 C          62.7122   80.4655   12.5224 C.ar    1  UNL1        0.0735
     43 C          62.6168   79.0479   12.0413 C.ar    1  UNL1        0.0062
     44 C          62.7614   78.7405   10.5802 C.ar    1  UNL1        0.0003
     45 C          63.0013   79.8505    9.6004 C.ar    1  UNL1        0.0031
     46 C          63.0967   81.2681   10.0816 C.ar    1  UNL1        0.0376
     47 C          62.9521   81.5756   11.5426 C.ar    1  UNL1        0.1485
     48 O          63.0475   82.9930   12.0237 O.2     1  UNL1       -0.4487
     49 O          64.0938   91.4148   15.0627 O.3     1  UNL1       -0.4751
     50 C          65.4120   91.9639   15.5219 C.3     1  UNL1        0.2101
     51 C          66.6598   91.6683   14.7436 C.3     1  UNL1        0.0752
     52 C          66.7515   92.0567   13.2977 C.ar    1  UNL1        0.0007
     53 C          65.5559   92.6326   12.5985 C.ar    1  UNL1       -0.0010
     54 C          65.6476   93.0210   11.1526 C.ar    1  UNL1        0.0204
     55 C          66.9349   92.8335   10.4058 C.ar    1  UNL1        0.0989
     56 N          68.1305   92.2576   11.1050 N.ar    1  UNL1       -0.2426
     57 C          68.0388   91.8692   12.5509 C.ar    1  UNL1        0.0947
@<TRIPOS>BOND
     1    30    31    1
     2    31    20    1
     3    20    21   ar
     4    21    22   ar
     5    22    23   ar
     6    23    24   ar
     7    24    25   ar
     8    25    32    1
     9    32    33    1
    10    23    26    1
    11    26    27    1
    12    27    19    1
    13    19    18    1
    14    18    12    1
    15    12    13   ar
    16    13    14   ar
    17    14    15   ar
    18    15     7    1
    19     7     8   ar
    20     8     9   ar
    21     9    10   ar
    22    10     1    1
    23     1     2   ar
    24     2     3   ar
    25     3    49    1
    26    49    50    1
    27    50    51    1
    28    51    52    1
    29    52    53   ar
    30    53    54   ar
    31    54    55   ar
    32    55    56   ar
    33    56    57   ar
    34     3     4   ar
    35     4     5   ar
    36     5     6   ar
    37     6    34    1
    38    34    35   am
    39    35    36    2
    40    35    38    1
    41    38    39   ar
    42    39    40   ar
    43    40    41    2
    44    40    42   ar
    45    42    43   ar
    46    43    44   ar
    47    44    45   ar
    48    45    46   ar
    49    46    47   ar
    50    47    48   ar
    51    10    11   ar
    52    15    16   ar
    53    16    17   ar
    54    27    28    1
    55    28    29    1
    56    25    20   ar
    57    17    12   ar
    58    29    22    1
    59    11     7   ar
    60     6     1   ar
    61    48    38   ar
    62    57    52   ar
    63    47    42   ar
    64    34    37    1
@<TRIPOS>MOLECULE
*****
 57 64 0 0 0
SMALL
GASTEIGER

@<TRIPOS>ATOM
      1 C          62.5947   84.9037   12.9118 C.ar    1  UNL1        0.0558
      2 C          62.0368   83.5801   13.3438 C.ar    1  UNL1        0.0413
      3 C          62.2009   83.1244   14.7634 C.ar    1  UNL1        0.1387
      4 C          62.9230   83.9923   15.7511 C.ar    1  UNL1        0.0382
      5 C          63.4809   85.3159   15.3190 C.ar    1  UNL1        0.0179
      6 C          63.3168   85.7716   13.8994 C.ar    1  UNL1        0.0539
      7 N          61.6423   86.5392    9.5231 N.ar    1  UNL1       -0.1285
      8 N          62.7139   85.5823    9.0920 N.ar    1  UNL1       -0.0406
      9 N          63.2012   84.8532   10.3089 N.ar    1  UNL1       -0.1074
     10 C          62.4306   85.3595   11.4922 C.ar    1  UNL1        0.2075
     11 N          61.4672   86.4015   11.0065 N.ar    1  UNL1       -0.1253
     12 C          59.3542   89.3327    6.8377 C.ar    1  UNL1       -0.0207
     13 C          60.1255   89.8769    8.0035 C.ar    1  UNL1       -0.0026
     14 C          60.8882   88.9457    8.8986 C.ar    1  UNL1        0.0206
     15 C          60.8796   87.4704    8.6280 C.ar    1  UNL1        0.1045
     16 C          60.1084   86.9262    7.4622 C.ar    1  UNL1        0.0206
     17 C          59.3457   87.8573    6.5671 C.ar    1  UNL1       -0.0026
     18 C          58.5916   90.2639    5.9426 C.3     1  UNL1        0.0437
     19 C          59.1101   91.6473    5.6831 C.3     1  UNL1        0.0771
     20 C          62.5371   93.2360   -0.0599 C.ar    1  UNL1        0.1721
     21 C          61.0648   93.1407    0.2105 C.ar    1  UNL1        0.0356
     22 C          60.5761   92.7673    1.5786 C.ar    1  UNL1       -0.0202
     23 C          61.5598   92.4893    2.6764 C.ar    1  UNL1       -0.0068
     24 C          63.0322   92.5846    2.4060 C.ar    1  UNL1        0.0368
     25 C          63.5208   92.9580    1.0379 C.ar    1  UNL1        0.1721
     26 C          61.0711   92.1159    4.0445 C.3     1  UNL1        0.0990
     27 N          59.5988   92.0206    4.3149 N.3     1  UNL1       -0.2683
     28 C          58.6151   92.2987    3.2171 C.3     1  UNL1        0.0771
     29 C          59.1038   92.6720    1.8490 C.3     1  UNL1        0.0435
     30 C          63.8368   94.8565   -1.6203 C.3     1  UNL1        0.2526
     31 O          63.0259   93.6093   -1.4281 O.3     1  UNL1       -0.4684
     32 O          64.9932   93.0533    0.7674 O.3     1  UNL1       -0.4684
     33 C          65.7942   94.1729    1.3631 C.3     1  UNL1        0.2526
     34 N          63.8748   87.0953   13.4673 N.am    1  UNL1       -0.2778
     35 C          63.8882   88.2515   14.4229 C.2     1  UNL1        0.2843
     36 O          63.3436   88.0840   15.8105 O.2     1  UNL1       -0.2665
     37 H          64.2323   87.2052   12.5566 H       1  UNL1        0.1553
     38 C          64.4461   89.5751   13.9909 C.ar    1  UNL1        0.2017
     39 C          65.2852   90.3805   14.9382 C.ar    1  UNL1        0.0843
     40 C          65.8431   91.7041   14.5063 C.ar    1  UNL1        0.2018
     41 O          66.6822   92.5095   15.4536 O.2     1  UNL1       -0.2864
     42 C          65.5621   92.2224   13.1270 C.ar    1  UNL1        0.0735
     43 C          66.1201   93.5461   12.6950 C.ar    1  UNL1        0.0062
     44 C          65.8390   94.0644   11.3158 C.ar    1  UNL1        0.0003
     45 C          65.0000   93.2590   10.3685 C.ar    1  UNL1        0.0031
     46 C          64.4420   91.9353   10.8004 C.ar    1  UNL1        0.0376
     47 C          64.7230   91.4170   12.1797 C.ar    1  UNL1        0.1485
     48 O          64.1651   90.0934   12.6116 O.2     1  UNL1       -0.4487
     49 O          61.6429   81.8008   15.1954 O.3     1  UNL1       -0.4751
     50 C          62.2175   80.5290   14.6454 C.3     1  UNL1        0.2101
     51 C          63.3533   80.5808   13.6668 C.3     1  UNL1        0.0752
     52 C          63.1262   80.2010   12.2336 C.ar    1  UNL1        0.0007
     53 C          63.2811   81.2284   11.1517 C.ar    1  UNL1       -0.0010
     54 C          63.0541   80.8485    9.7186 C.ar    1  UNL1        0.0204
     55 C          62.6721   79.4412    9.3671 C.ar    1  UNL1        0.0989
     56 N          62.5172   78.4138   10.4490 N.ar    1  UNL1       -0.2426
     57 C          62.7442   78.7937   11.8822 C.ar    1  UNL1        0.0947
@<TRIPOS>BOND
     1    30    31    1
     2    31    20    1
     3    20    21   ar
     4    21    22   ar
     5    22    23   ar
     6    23    24   ar
     7    24    25   ar
     8    25    32    1
     9    32    33    1
    10    23    26    1
    11    26    27    1
    12    27    19    1
    13    19    18    1
    14    18    12    1
    15    12    13   ar
    16    13    14   ar
    17    14    15   ar
    18    15     7    1
    19     7     8   ar
    20     8     9   ar
    21     9    10   ar
    22    10     1    1
    23     1     2   ar
    24     2     3   ar
    25     3    49    1
    26    49    50    1
    27    50    51    1
    28    51    52    1
    29    52    53   ar
    30    53    54   ar
    31    54    55   ar
    32    55    56   ar
    33    56    57   ar
    34     3     4   ar
    35     4     5   ar
    36     5     6   ar
    37     6    34    1
    38    34    35   am
    39    35    36    2
    40    35    38    1
    41    38    39   ar
    42    39    40   ar
    43    40    41    2
    44    40    42   ar
    45    42    43   ar
    46    43    44   ar
    47    44    45   ar
    48    45    46   ar
    49    46    47   ar
    50    47    48   ar
    51    10    11   ar
    52    15    16   ar
    53    16    17   ar
    54    27    28    1
    55    28    29    1
    56    25    20   ar
    57    17    12   ar
    58    29    22    1
    59    11     7   ar
    60     6     1   ar
    61    48    38   ar
    62    57    52   ar
    63    47    42   ar
    64    34    37    1
