@<TRIPOS>MOLECULE
*****
 26 29 0 0 0
SMALL
GASTEIGER

@<TRIPOS>ATOM
      1 C          62.1462   89.9065   11.6380 C.3     1  UNL1        0.2535
      2 C          60.2379   88.6543    9.3056 C.3     1  UNL1        0.0555
      3 C          61.1347   87.8769   10.2229 C.ar    1  UNL1        0.0997
      4 N          61.3118   86.3874   10.2292 N.ar    1  UNL1       -0.1510
      5 N          62.2983   86.0424   11.3051 N.ar    1  UNL1       -0.1484
      6 N          62.7310   87.3187   11.9638 N.ar    1  UNL1       -0.1474
      7 C          62.0119   88.4524   11.2950 C.ar    1  UNL1        0.1393
      8 C          62.7695   84.6632   11.6600 C.ar    1  UNL1        0.1029
      9 C          63.4147   83.7995   10.6170 C.ar    1  UNL1        0.0209
     10 C          63.8859   82.4203   10.9719 C.ar    1  UNL1        0.0016
     11 C          63.7118   81.9050   12.3698 C.ar    1  UNL1        0.0001
     12 C          63.0667   82.7686   13.4127 C.ar    1  UNL1        0.0016
     13 C          62.5955   84.1478   13.0579 C.ar    1  UNL1        0.0209
     14 O          63.4885   90.5725   11.5686 O.2     1  UNL1       -0.4703
     15 C          64.1189   91.1209   12.8142 C.2     1  UNL1        0.1605
     16 C          65.2570   92.0928   12.7134 C.2     1  UNL1        0.1241
     17 C          65.8874   92.6413   13.9590 C.2     1  UNL1        0.3255
     18 N          67.0256   93.6132   13.8582 N.pl3   1  UNL1       -0.2459
     19 N          65.3798   92.2179   15.3056 N.2     1  UNL1        0.0061
     20 C          64.2417   91.2461   15.4064 C.2     1  UNL1        0.4144
     21 N          63.5329   90.6495   16.5861 N.2     1  UNL1        0.1040
     22 N          62.4644   89.7322   16.0694 N.2     1  UNL1        0.0724
     23 N          62.5128   89.7619   14.5705 N.2     1  UNL1       -0.1146
     24 C          63.6113   90.6976   14.1607 C.3     1  UNL1        0.2977
     25 H          67.3588   93.8911   12.9745 H       1  UNL1        0.2884
     26 H          67.4394   93.9732   14.6758 H       1  UNL1        0.2884
@<TRIPOS>BOND
     1     2     3    1
     2     3     4   ar
     3     4     5   ar
     4     5     8    1
     5     8     9   ar
     6     9    10   ar
     7    10    11   ar
     8    11    12   ar
     9    12    13   ar
    10     5     6   ar
    11     6     7   ar
    12     7     1    1
    13     1    14    1
    14    14    15    1
    15    15    16    2
    16    16    17    1
    17    17    18    1
    18    17    19    2
    19    19    20    1
    20    20    21    2
    21    21    22    1
    22    22    23    2
    23    23    24    1
    24     7     3   ar
    25    24    15    1
    26    13     8   ar
    27    24    20    1
    28    18    25    1
    29    18    26    1
@<TRIPOS>MOLECULE
*****
 26 29 0 0 0
SMALL
GASTEIGER

@<TRIPOS>ATOM
      1 C          61.8025   90.0216   11.2409 C.3     1  UNL1        0.2535
      2 C          60.1389   88.7347    8.7457 C.3     1  UNL1        0.0555
      3 C          61.0279   87.9847    9.6929 C.ar    1  UNL1        0.0997
      4 N          61.3083   86.5116    9.6595 N.ar    1  UNL1       -0.1510
      5 N          62.2462   86.1926   10.7857 N.ar    1  UNL1       -0.1484
      6 N          62.5455   87.4686   11.5152 N.ar    1  UNL1       -0.1474
      7 C          61.7926   88.5762   10.8398 C.ar    1  UNL1        0.1393
      8 C          62.7896   84.8357   11.1232 C.ar    1  UNL1        0.1029
      9 C          62.6750   84.3089   12.5230 C.ar    1  UNL1        0.0209
     10 C          63.2182   82.9521   12.8606 C.ar    1  UNL1        0.0016
     11 C          63.8762   82.1222   11.7983 C.ar    1  UNL1        0.0001
     12 C          63.9908   82.6490   10.3986 C.ar    1  UNL1        0.0016
     13 C          63.4475   84.0058   10.0610 C.ar    1  UNL1        0.0209
     14 O          63.0837   90.8007   11.2061 O.2     1  UNL1       -0.4703
     15 C          63.7977   91.1276   12.4841 C.2     1  UNL1        0.1605
     16 C          63.2787   90.6006   13.7891 C.2     1  UNL1        0.1241
     17 C          63.9927   90.9274   15.0671 C.2     1  UNL1        0.3255
     18 N          63.4736   90.4004   16.3721 N.pl3   1  UNL1       -0.2459
     19 N          65.2257   91.7813   15.0402 N.2     1  UNL1        0.0061
     20 C          65.7447   92.3082   13.7353 C.2     1  UNL1        0.4144
     21 N          66.9274   93.1674   13.3989 N.2     1  UNL1        0.1040
     22 N          66.9443   93.3716   11.9130 N.2     1  UNL1        0.0724
     23 N          65.7721   92.6386   11.3310 N.2     1  UNL1       -0.1146
     24 C          65.0307   91.9814   12.4572 C.3     1  UNL1        0.2977
     25 H          62.6644   89.8400   16.3898 H       1  UNL1        0.2884
     26 H          63.9423   90.6149   17.2109 H       1  UNL1        0.2884
@<TRIPOS>BOND
     1     2     3    1
     2     3     4   ar
     3     4     5   ar
     4     5     8    1
     5     8     9   ar
     6     9    10   ar
     7    10    11   ar
     8    11    12   ar
     9    12    13   ar
    10     5     6   ar
    11     6     7   ar
    12     7     1    1
    13     1    14    1
    14    14    15    1
    15    15    16    2
    16    16    17    1
    17    17    18    1
    18    17    19    2
    19    19    20    1
    20    20    21    2
    21    21    22    1
    22    22    23    2
    23    23    24    1
    24     7     3   ar
    25    24    15    1
    26    13     8   ar
    27    24    20    1
    28    18    25    1
    29    18    26    1
@<TRIPOS>MOLECULE
*****
 26 29 0 0 0
SMALL
GASTEIGER

@<TRIPOS>ATOM
      1 C          64.5663   88.3897   14.7914 C.3     1  UNL1        0.2535
      2 C          62.9747   87.3401   17.4398 C.3     1  UNL1        0.0555
      3 C          63.2131   86.5535   16.1851 C.ar    1  UNL1        0.0997
      4 N          62.7619   85.1464   15.9274 N.ar    1  UNL1       -0.1510
      5 N          63.2146   84.7592   14.5508 N.ar    1  UNL1       -0.1484
      6 N          63.9456   85.9270   13.9577 N.ar    1  UNL1       -0.1474
      7 C          63.9447   87.0359   14.9677 C.ar    1  UNL1        0.1393
      8 C          62.9778   83.4364   13.8843 C.ar    1  UNL1        0.1029
      9 C          62.1838   82.3746   14.5858 C.ar    1  UNL1        0.0209
     10 C          61.9470   81.0518   13.9193 C.ar    1  UNL1        0.0016
     11 C          62.5043   80.7909   12.5513 C.ar    1  UNL1        0.0001
     12 C          63.2983   81.8526   11.8499 C.ar    1  UNL1        0.0016
     13 C          63.5351   83.1754   12.5163 C.ar    1  UNL1        0.0209
     14 O          63.7049   89.5738   14.4663 O.2     1  UNL1       -0.4703
     15 C          64.1142   90.5234   13.3797 C.2     1  UNL1        0.1605
     16 C          63.3593   90.5505   12.0837 C.2     1  UNL1        0.1241
     17 C          63.7686   91.4999   10.9971 C.2     1  UNL1        0.3255
     18 N          63.0137   91.5270    9.7011 N.pl3   1  UNL1       -0.2459
     19 N          64.9328   92.4224   11.2063 N.2     1  UNL1        0.0061
     20 C          65.6877   92.3953   12.5022 C.2     1  UNL1        0.4144
     21 N          66.8679   93.1804   12.9929 N.2     1  UNL1        0.1040
     22 N          67.1880   92.7161   14.3828 N.2     1  UNL1        0.0724
     23 N          66.2056   91.6440   14.7512 N.2     1  UNL1       -0.1146
     24 C          65.2784   91.4458   13.5889 C.3     1  UNL1        0.2977
     25 H          62.2496   90.9216    9.5638 H       1  UNL1        0.2884
     26 H          63.2824   92.1502    8.9879 H       1  UNL1        0.2884
@<TRIPOS>BOND
     1     2     3    1
     2     3     4   ar
     3     4     5   ar
     4     5     8    1
     5     8     9   ar
     6     9    10   ar
     7    10    11   ar
     8    11    12   ar
     9    12    13   ar
    10     5     6   ar
    11     6     7   ar
    12     7     1    1
    13     1    14    1
    14    14    15    1
    15    15    16    2
    16    16    17    1
    17    17    18    1
    18    17    19    2
    19    19    20    1
    20    20    21    2
    21    21    22    1
    22    22    23    2
    23    23    24    1
    24     7     3   ar
    25    24    15    1
    26    13     8   ar
    27    24    20    1
    28    18    25    1
    29    18    26    1
@<TRIPOS>MOLECULE
*****
 26 29 0 0 0
SMALL
GASTEIGER

@<TRIPOS>ATOM
      1 C          63.8805   89.2601   13.4989 C.3     1  UNL1        0.2535
      2 C          62.3544   89.0259   10.6239 C.3     1  UNL1        0.0555
      3 C          62.6978   87.8851   11.5353 C.ar    1  UNL1        0.0997
      4 N          62.4001   86.4364   11.2852 N.ar    1  UNL1       -0.1510
      5 N          62.9175   85.6487   12.4521 N.ar    1  UNL1       -0.1484
      6 N          63.5350   86.6105   13.4234 N.ar    1  UNL1       -0.1474
      7 C          63.3993   87.9927   12.8568 C.ar    1  UNL1        0.1393
      8 C          62.8324   84.1603   12.6185 C.ar    1  UNL1        0.1029
      9 C          62.5224   83.5725   13.9633 C.ar    1  UNL1        0.0209
     10 C          62.4372   82.0842   14.1298 C.ar    1  UNL1        0.0016
     11 C          62.6621   81.1837   12.9513 C.ar    1  UNL1        0.0001
     12 C          62.9721   81.7715   11.6066 C.ar    1  UNL1        0.0016
     13 C          63.0572   83.2598   11.4402 C.ar    1  UNL1        0.0209
     14 O          64.0104   90.5118   12.6827 O.2     1  UNL1       -0.4703
     15 C          64.9115   91.6184   13.1449 C.2     1  UNL1        0.1605
     16 C          65.2763   91.7321   14.5954 C.2     1  UNL1        0.1241
     17 C          66.1773   92.8386   15.0575 C.2     1  UNL1        0.3255
     18 N          66.5422   92.9523   16.5081 N.pl3   1  UNL1       -0.2459
     19 N          66.7136   93.8315   14.0692 N.2     1  UNL1        0.0061
     20 C          66.3487   93.7178   12.6188 C.2     1  UNL1        0.4144
     21 N          66.7212   94.5425   11.4225 N.2     1  UNL1        0.1040
     22 N          66.0504   93.9456   10.2210 N.2     1  UNL1        0.0724
     23 N          65.2633   92.7520   10.6746 N.2     1  UNL1       -0.1146
     24 C          65.4476   92.6112   12.1566 C.3     1  UNL1        0.2977
     25 H          66.1903   92.3007   17.1568 H       1  UNL1        0.2884
     26 H          67.1336   93.6786   16.8115 H       1  UNL1        0.2884
@<TRIPOS>BOND
     1     2     3    1
     2     3     4   ar
     3     4     5   ar
     4     5     8    1
     5     8     9   ar
     6     9    10   ar
     7    10    11   ar
     8    11    12   ar
     9    12    13   ar
    10     5     6   ar
    11     6     7   ar
    12     7     1    1
    13     1    14    1
    14    14    15    1
    15    15    16    2
    16    16    17    1
    17    17    18    1
    18    17    19    2
    19    19    20    1
    20    20    21    2
    21    21    22    1
    22    22    23    2
    23    23    24    1
    24     7     3   ar
    25    24    15    1
    26    13     8   ar
    27    24    20    1
    28    18    25    1
    29    18    26    1
@<TRIPOS>MOLECULE
*****
 26 29 0 0 0
SMALL
GASTEIGER

@<TRIPOS>ATOM
      1 C          62.7642   90.2022   11.5820 C.3     1  UNL1        0.2535
      2 C          60.4251   88.9342    9.6925 C.3     1  UNL1        0.0555
      3 C          61.3480   88.1639   10.5897 C.ar    1  UNL1        0.0997
      4 N          61.3578   86.6755   10.7759 N.ar    1  UNL1       -0.1510
      5 N          62.4389   86.3385   11.7594 N.ar    1  UNL1       -0.1484
      6 N          63.0974   87.6186   12.1811 N.ar    1  UNL1       -0.1474
      7 C          62.4232   88.7467   11.4582 C.ar    1  UNL1        0.1393
      8 C          62.7985   84.9629   12.2374 C.ar    1  UNL1        0.1029
      9 C          63.3028   84.7628   13.6358 C.ar    1  UNL1        0.0209
     10 C          63.6624   83.3872   14.1139 C.ar    1  UNL1        0.0016
     11 C          63.5177   82.2118   13.1933 C.ar    1  UNL1        0.0001
     12 C          63.0135   82.4118   11.7949 C.ar    1  UNL1        0.0016
     13 C          62.6539   83.7874   11.3169 C.ar    1  UNL1        0.0209
     14 O          63.5713   90.6866   12.7498 O.2     1  UNL1       -0.4703
     15 C          64.6228   91.7376   12.5505 C.2     1  UNL1        0.1605
     16 C          64.8828   92.2879   11.1795 C.2     1  UNL1        0.1241
     17 C          65.9343   93.3388   10.9802 C.2     1  UNL1        0.3255
     18 N          66.1943   93.8891    9.6091 N.pl3   1  UNL1       -0.2459
     19 N          66.7259   93.8395   12.1518 N.2     1  UNL1        0.0061
     20 C          66.4659   93.2893   13.5228 C.2     1  UNL1        0.4144
     21 N          67.0828   93.5868   14.8573 N.2     1  UNL1        0.1040
     22 N          66.4125   92.7198   15.8814 N.2     1  UNL1        0.0724
     23 N          65.3813   91.8863   15.1799 N.2     1  UNL1       -0.1146
     24 C          65.4144   92.2383   13.7221 C.3     1  UNL1        0.2977
     25 H          65.6748   93.5605    8.8401 H       1  UNL1        0.2884
     26 H          66.8844   94.5789    9.4783 H       1  UNL1        0.2884
@<TRIPOS>BOND
     1     2     3    1
     2     3     4   ar
     3     4     5   ar
     4     5     8    1
     5     8     9   ar
     6     9    10   ar
     7    10    11   ar
     8    11    12   ar
     9    12    13   ar
    10     5     6   ar
    11     6     7   ar
    12     7     1    1
    13     1    14    1
    14    14    15    1
    15    15    16    2
    16    16    17    1
    17    17    18    1
    18    17    19    2
    19    19    20    1
    20    20    21    2
    21    21    22    1
    22    22    23    2
    23    23    24    1
    24     7     3   ar
    25    24    15    1
    26    13     8   ar
    27    24    20    1
    28    18    25    1
    29    18    26    1
@<TRIPOS>MOLECULE
*****
 26 29 0 0 0
SMALL
GASTEIGER

@<TRIPOS>ATOM
      1 C          61.6266   85.8863   11.1416 C.3     1  UNL1        0.2535
      2 C          60.3129   88.3130    9.3996 C.3     1  UNL1        0.0555
      3 C          61.3964   88.4519   10.4276 C.ar    1  UNL1        0.0997
      4 N          62.0662   89.7306   10.8353 N.ar    1  UNL1       -0.1510
      5 N          63.0840   89.4055   11.8880 N.ar    1  UNL1       -0.1484
      6 N          63.0432   87.9258   12.1309 N.ar    1  UNL1       -0.1474
      7 C          62.0003   87.3365   11.2283 C.ar    1  UNL1        0.1393
      8 C          63.9846   90.3876   12.5770 C.ar    1  UNL1        0.1029
      9 C          64.4612   91.6082   11.8469 C.ar    1  UNL1        0.0209
     10 C          65.3617   92.5903   12.5358 C.ar    1  UNL1        0.0016
     11 C          65.7855   92.3517   13.9548 C.ar    1  UNL1        0.0001
     12 C          65.3089   91.1311   14.6848 C.ar    1  UNL1        0.0016
     13 C          64.4084   90.1491   13.9959 C.ar    1  UNL1        0.0209
     14 O          62.6911   84.8320   11.2143 O.2     1  UNL1       -0.4703
     15 C          63.0608   84.2294   12.5372 C.2     1  UNL1        0.1605
     16 C          63.5187   85.1109   13.6612 C.2     1  UNL1        0.1241
     17 C          63.8884   84.5083   14.9840 C.2     1  UNL1        0.3255
     18 N          64.3463   85.3899   16.1080 N.pl3   1  UNL1       -0.2459
     19 N          63.8002   83.0242   15.1831 N.2     1  UNL1        0.0061
     20 C          63.3422   82.1427   14.0592 C.2     1  UNL1        0.4144
     21 N          63.1566   80.6575   13.9602 N.2     1  UNL1        0.1040
     22 N          62.6722   80.3423   12.5760 N.2     1  UNL1        0.0724
     23 N          62.5584   81.6326   11.8196 N.2     1  UNL1       -0.1146
     24 C          62.9725   82.7453   12.7362 C.3     1  UNL1        0.2977
     25 H          64.4043   86.3640   15.9774 H       1  UNL1        0.2884
     26 H          64.5890   84.9944   16.9763 H       1  UNL1        0.2884
@<TRIPOS>BOND
     1     2     3    1
     2     3     4   ar
     3     4     5   ar
     4     5     8    1
     5     8     9   ar
     6     9    10   ar
     7    10    11   ar
     8    11    12   ar
     9    12    13   ar
    10     5     6   ar
    11     6     7   ar
    12     7     1    1
    13     1    14    1
    14    14    15    1
    15    15    16    2
    16    16    17    1
    17    17    18    1
    18    17    19    2
    19    19    20    1
    20    20    21    2
    21    21    22    1
    22    22    23    2
    23    23    24    1
    24     7     3   ar
    25    24    15    1
    26    13     8   ar
    27    24    20    1
    28    18    25    1
    29    18    26    1
@<TRIPOS>MOLECULE
*****
 26 29 0 0 0
SMALL
GASTEIGER

@<TRIPOS>ATOM
      1 C          64.4365   89.2451   14.4890 C.3     1  UNL1        0.2535
      2 C          64.5409   86.0297   15.0359 C.3     1  UNL1        0.0555
      3 C          63.8919   86.7040   13.8637 C.ar    1  UNL1        0.0997
      4 N          63.1769   86.0187   12.7371 N.ar    1  UNL1       -0.1510
      5 N          62.6871   87.0731   11.7895 N.ar    1  UNL1       -0.1484
      6 N          63.0993   88.4101   12.3303 N.ar    1  UNL1       -0.1474
      7 C          63.8439   88.1819   13.6123 C.ar    1  UNL1        0.1393
      8 C          61.9197   86.8328   10.5231 C.ar    1  UNL1        0.1029
      9 C          62.5130   85.9867    9.4358 C.ar    1  UNL1        0.0209
     10 C          61.7457   85.7464    8.1695 C.ar    1  UNL1        0.0016
     11 C          60.3851   86.3521    7.9906 C.ar    1  UNL1        0.0001
     12 C          59.7919   87.1981    9.0779 C.ar    1  UNL1        0.0016
     13 C          60.5592   87.4384   10.3442 C.ar    1  UNL1        0.0209
     14 O          63.9877   90.6695   14.3482 O.2     1  UNL1       -0.4703
     15 C          64.8874   91.6785   13.6983 C.2     1  UNL1        0.1605
     16 C          64.7489   91.9739   12.2342 C.2     1  UNL1        0.1241
     17 C          65.6485   92.9829   11.5843 C.2     1  UNL1        0.3255
     18 N          65.5099   93.2784   10.1201 N.pl3   1  UNL1       -0.2459
     19 N          66.6867   93.6967   12.3984 N.2     1  UNL1        0.0061
     20 C          66.8252   93.4013   13.8625 C.2     1  UNL1        0.4144
     21 N          67.7493   93.9428   14.9126 N.2     1  UNL1        0.1040
     22 N          67.4208   93.2684   16.2115 N.2     1  UNL1        0.0724
     23 N          66.2936   92.3100   15.9642 N.2     1  UNL1       -0.1146
     24 C          65.9255   92.3922   14.5124 C.3     1  UNL1        0.2977
     25 H          64.8285   92.8100    9.5858 H       1  UNL1        0.2884
     26 H          66.1004   93.9406    9.6936 H       1  UNL1        0.2884
@<TRIPOS>BOND
     1     2     3    1
     2     3     4   ar
     3     4     5   ar
     4     5     8    1
     5     8     9   ar
     6     9    10   ar
     7    10    11   ar
     8    11    12   ar
     9    12    13   ar
    10     5     6   ar
    11     6     7   ar
    12     7     1    1
    13     1    14    1
    14    14    15    1
    15    15    16    2
    16    16    17    1
    17    17    18    1
    18    17    19    2
    19    19    20    1
    20    20    21    2
    21    21    22    1
    22    22    23    2
    23    23    24    1
    24     7     3   ar
    25    24    15    1
    26    13     8   ar
    27    24    20    1
    28    18    25    1
    29    18    26    1
@<TRIPOS>MOLECULE
*****
 26 29 0 0 0
SMALL
GASTEIGER

@<TRIPOS>ATOM
      1 C          61.5375   86.9683   10.9189 C.3     1  UNL1        0.2535
      2 C          60.4453   89.6737    9.4570 C.3     1  UNL1        0.0555
      3 C          61.5365   89.6057   10.4840 C.ar    1  UNL1        0.0997
      4 N          62.3172   90.7693   11.0194 N.ar    1  UNL1       -0.1510
      5 N          63.3016   90.2449   12.0222 N.ar    1  UNL1       -0.1484
      6 N          63.1294   88.7572   12.1066 N.ar    1  UNL1       -0.1474
      7 C          62.0385   88.3622   11.1560 C.ar    1  UNL1        0.1393
      8 C          64.2857   91.0644   12.8035 C.ar    1  UNL1        0.1029
      9 C          64.5360   90.7572   14.2502 C.ar    1  UNL1        0.0209
     10 C          65.5200   91.5766   15.0315 C.ar    1  UNL1        0.0016
     11 C          66.2536   92.7031   14.3659 C.ar    1  UNL1        0.0001
     12 C          66.0032   93.0102   12.9193 C.ar    1  UNL1        0.0016
     13 C          65.0193   92.1908   12.1380 C.ar    1  UNL1        0.0209
     14 O          61.3846   86.0202   12.0712 O.2     1  UNL1       -0.4703
     15 C          62.3400   84.8751   12.2320 C.2     1  UNL1        0.1605
     16 C          62.9884   84.2641   11.0253 C.2     1  UNL1        0.1241
     17 C          63.9437   83.1190   11.1861 C.2     1  UNL1        0.3255
     18 N          64.5921   82.5080    9.9793 N.pl3   1  UNL1       -0.2459
     19 N          64.2508   82.5848   12.5538 N.2     1  UNL1        0.0061
     20 C          63.6025   83.1958   13.7605 C.2     1  UNL1        0.4144
     21 N          63.7103   82.8841   15.2238 N.2     1  UNL1        0.1040
     22 N          62.8215   83.8366   15.9673 N.2     1  UNL1        0.0724
     23 N          62.1644   84.7370   14.9636 N.2     1  UNL1       -0.1146
     24 C          62.6471   84.3409   13.5997 C.3     1  UNL1        0.2977
     25 H          64.3906   82.8586    9.0816 H       1  UNL1        0.2884
     26 H          65.2192   81.7564   10.0848 H       1  UNL1        0.2884
@<TRIPOS>BOND
     1     2     3    1
     2     3     4   ar
     3     4     5   ar
     4     5     8    1
     5     8     9   ar
     6     9    10   ar
     7    10    11   ar
     8    11    12   ar
     9    12    13   ar
    10     5     6   ar
    11     6     7   ar
    12     7     1    1
    13     1    14    1
    14    14    15    1
    15    15    16    2
    16    16    17    1
    17    17    18    1
    18    17    19    2
    19    19    20    1
    20    20    21    2
    21    21    22    1
    22    22    23    2
    23    23    24    1
    24     7     3   ar
    25    24    15    1
    26    13     8   ar
    27    24    20    1
    28    18    25    1
    29    18    26    1
@<TRIPOS>MOLECULE
*****
 26 29 0 0 0
SMALL
GASTEIGER

@<TRIPOS>ATOM
      1 C          61.7414   85.4879   10.7870 C.3     1  UNL1        0.2535
      2 C          59.8435   87.9237    9.7317 C.3     1  UNL1        0.0555
      3 C          61.0678   88.0668   10.5864 C.ar    1  UNL1        0.0997
      4 N          61.6348   89.3546   11.1061 N.ar    1  UNL1       -0.1510
      5 N          62.8575   89.0309   11.9123 N.ar    1  UNL1       -0.1484
      6 N          63.0462   87.5430   11.8909 N.ar    1  UNL1       -0.1474
      7 C          61.9402   86.9472   11.0715 C.ar    1  UNL1        0.1393
      8 C          63.7371   90.0213   12.6164 C.ar    1  UNL1        0.1029
      9 C          64.1129   91.3055   11.9384 C.ar    1  UNL1        0.0209
     10 C          64.9925   92.2958   12.6424 C.ar    1  UNL1        0.0016
     11 C          65.4961   92.0019   14.0244 C.ar    1  UNL1        0.0001
     12 C          65.1203   90.7178   14.7024 C.ar    1  UNL1        0.0016
     13 C          64.2407   89.7275   13.9984 C.ar    1  UNL1        0.0209
     14 O          62.8550   84.5157   11.0415 O.2     1  UNL1       -0.4703
     15 C          62.7579   83.5457   12.1816 C.2     1  UNL1        0.1605
     16 C          62.5928   82.0802   11.9075 C.2     1  UNL1        0.1241
     17 C          62.4958   81.1103   13.0475 C.2     1  UNL1        0.3255
     18 N          62.3307   79.6448   12.7734 N.pl3   1  UNL1       -0.2459
     19 N          62.5637   81.6058   14.4617 N.2     1  UNL1        0.0061
     20 C          62.7288   83.0713   14.7358 C.2     1  UNL1        0.4144
     21 N          62.8267   83.8483   16.0151 N.2     1  UNL1        0.1040
     22 N          62.9843   85.2985   15.6657 N.2     1  UNL1        0.0724
     23 N          62.9838   85.4177   14.1704 N.2     1  UNL1       -0.1146
     24 C          62.8259   84.0412   13.5957 C.3     1  UNL1        0.2977
     25 H          62.2861   79.3195   11.8452 H       1  UNL1        0.2884
     26 H          62.2670   79.0081   13.5216 H       1  UNL1        0.2884
@<TRIPOS>BOND
     1     2     3    1
     2     3     4   ar
     3     4     5   ar
     4     5     8    1
     5     8     9   ar
     6     9    10   ar
     7    10    11   ar
     8    11    12   ar
     9    12    13   ar
    10     5     6   ar
    11     6     7   ar
    12     7     1    1
    13     1    14    1
    14    14    15    1
    15    15    16    2
    16    16    17    1
    17    17    18    1
    18    17    19    2
    19    19    20    1
    20    20    21    2
    21    21    22    1
    22    22    23    2
    23    23    24    1
    24     7     3   ar
    25    24    15    1
    26    13     8   ar
    27    24    20    1
    28    18    25    1
    29    18    26    1
