@<TRIPOS>MOLECULE
*****
 34 39 0 0 0
SMALL
GASTEIGER

@<TRIPOS>ATOM
      1 O          64.4714   88.1140   13.4875 O.2     1  UNL1       -0.2747
      2 C          63.2263   88.3500   12.6849 C.2     1  UNL1        0.2294
      3 N          62.3546   89.5336   12.9835 N.am    1  UNL1       -0.2770
      4 C          62.8529   87.4023   11.5837 C.3     1  UNL1        0.1211
      5 C          62.4226   87.9353   10.2493 C.3     1  UNL1        0.0804
      6 N          62.0492   86.9877    9.1482 N.3     1  UNL1       -0.2969
      7 C          62.1061   85.5070    9.3815 C.3     1  UNL1        0.0714
      8 C          62.5365   84.9740   10.7159 C.3     1  UNL1        0.0490
      9 C          62.9099   85.9216   11.8170 C.3     1  UNL1        0.1224
     10 O          63.3106   86.7426   13.0068 O.3     1  UNL1       -0.3492
     11 C          63.6635   85.8025   14.1211 C.3     1  UNL1        0.1687
     12 C          63.4808   84.4004   13.6200 C.ar    1  UNL1        0.0079
     13 C          63.6783   83.0663   14.2764 C.ar    1  UNL1        0.0299
     14 C          63.4102   81.8057   13.5089 C.ar    1  UNL1        0.1671
     15 F          63.6077   80.4715   14.1652 F       1  UNL1       -0.2018
     16 C          62.9444   81.8794   12.0849 C.ar    1  UNL1        0.1671
     17 F          62.6763   80.6189   11.3173 F       1  UNL1       -0.2018
     18 C          62.7468   83.2136   11.4284 C.ar    1  UNL1        0.0297
     19 C          63.0150   84.4741   12.1960 C.ar    1  UNL1        0.0033
     20 H          62.6716   87.1865    8.3650 H       1  UNL1        0.1233
     21 C          61.1095   89.7696   12.1809 C.3     1  UNL1        0.0758
     22 C          60.3932   90.4865   11.0751 C.3     1  UNL1        0.0215
     23 C          59.6693   89.4613   11.8967 C.3     1  UNL1        0.0215
     24 C          62.7280   90.4812   14.0847 C.3     1  UNL1        0.1201
     25 C          64.0865   91.1170   14.0986 C.ar    1  UNL1        0.0007
     26 C          64.8664   91.1919   15.3777 C.ar    1  UNL1        0.0181
     27 C          66.2249   91.8277   15.3916 C.ar    1  UNL1        0.0986
     28 N          66.8036   92.3884   14.1265 N.ar    1  UNL1       -0.2439
     29 C          66.0237   92.3135   12.8473 C.ar    1  UNL1        0.0811
     30 C          66.6024   92.8742   11.5822 C.ar    1  UNL1        0.0191
     31 C          65.8225   92.7993   10.3031 C.ar    1  UNL1        0.0015
     32 C          64.4639   92.1635   10.2891 C.ar    1  UNL1        0.0001
     33 C          63.8853   91.6028   11.5543 C.ar    1  UNL1        0.0012
     34 C          64.6652   91.6777   12.8334 C.ar    1  UNL1        0.0153
@<TRIPOS>BOND
     1     1     2    2
     2     4     2    1
     3     4     5    1
     4     5     6    1
     5     6     7    1
     6     7     8    1
     7     9     8    1
     8     9    10    1
     9    10    11    1
    10    11    12    1
    11    12    13   ar
    12    13    14   ar
    13    14    15    1
    14    14    16   ar
    15    16    17    1
    16    16    18   ar
    17    18    19   ar
    18     2     3   am
    19     3    24    1
    20    24    25    1
    21    25    26   ar
    22    26    27   ar
    23    27    28   ar
    24    28    29   ar
    25    29    30   ar
    26    30    31   ar
    27    31    32   ar
    28    32    33   ar
    29    33    34   ar
    30     3    21    1
    31    21    22    1
    32    22    23    1
    33     9     4    1
    34    19    12   ar
    35    34    25   ar
    36    23    21    1
    37    19     9    1
    38    34    29   ar
    39     6    20    1
@<TRIPOS>MOLECULE
*****
 34 39 0 0 0
SMALL
GASTEIGER

@<TRIPOS>ATOM
      1 O          64.4494   88.1879   13.1364 O.2     1  UNL1       -0.2747
      2 C          63.1878   88.4642   12.3735 C.2     1  UNL1        0.2294
      3 N          62.4995   89.7892   12.5171 N.am    1  UNL1       -0.2770
      4 C          62.6144   87.4155   11.4671 C.3     1  UNL1        0.1211
      5 C          61.9249   87.8175   10.1971 C.3     1  UNL1        0.0804
      6 N          61.3516   86.7688    9.2907 N.3     1  UNL1       -0.2969
      7 C          61.4678   85.3182    9.6544 C.3     1  UNL1        0.0714
      8 C          62.1572   84.9163   10.9244 C.3     1  UNL1        0.0490
      9 C          62.7306   85.9649   11.8308 C.3     1  UNL1        0.1224
     10 O          63.3494   86.8961   12.8309 O.3     1  UNL1       -0.3492
     11 C          63.9236   86.0679   13.9419 C.3     1  UNL1        0.1687
     12 C          63.6596   84.6249   13.6286 C.ar    1  UNL1        0.0079
     13 C          63.9954   83.3608   14.3627 C.ar    1  UNL1        0.0299
     14 C          63.5939   82.0328   13.7922 C.ar    1  UNL1        0.1671
     15 F          63.9296   80.7687   14.5263 F       1  UNL1       -0.2018
     16 C          62.8566   81.9692   12.4875 C.ar    1  UNL1        0.1671
     17 F          62.4550   80.6414   11.9169 F       1  UNL1       -0.2018
     18 C          62.5207   83.2334   11.7532 C.ar    1  UNL1        0.0297
     19 C          62.9223   84.5613   12.3238 C.ar    1  UNL1        0.0033
     20 H          61.8059   86.8825    8.3845 H       1  UNL1        0.1233
     21 C          61.2378   90.0656   11.7542 C.3     1  UNL1        0.0758
     22 C          59.7395   90.0895   11.6864 C.3     1  UNL1        0.0215
     23 C          60.5509   90.5202   10.5007 C.3     1  UNL1        0.0215
     24 C          63.0728   90.8379   13.4235 C.3     1  UNL1        0.1201
     25 C          64.3005   91.5952   13.0120 C.ar    1  UNL1        0.0007
     26 C          64.5560   91.8782   11.5613 C.ar    1  UNL1        0.0181
     27 C          65.7837   92.6355   11.1499 C.ar    1  UNL1        0.0986
     28 N          66.7559   93.1097   12.1891 N.ar    1  UNL1       -0.2439
     29 C          66.5004   92.8266   13.6399 C.ar    1  UNL1        0.0811
     30 C          67.4725   93.3008   14.6791 C.ar    1  UNL1        0.0191
     31 C          67.2170   93.0177   16.1297 C.ar    1  UNL1        0.0015
     32 C          65.9893   92.2604   16.5412 C.ar    1  UNL1        0.0001
     33 C          65.0171   91.7863   15.5020 C.ar    1  UNL1        0.0012
     34 C          65.2727   92.0693   14.0513 C.ar    1  UNL1        0.0153
@<TRIPOS>BOND
     1     1     2    2
     2     4     2    1
     3     4     5    1
     4     5     6    1
     5     6     7    1
     6     7     8    1
     7     9     8    1
     8     9    10    1
     9    10    11    1
    10    11    12    1
    11    12    13   ar
    12    13    14   ar
    13    14    15    1
    14    14    16   ar
    15    16    17    1
    16    16    18   ar
    17    18    19   ar
    18     2     3   am
    19     3    24    1
    20    24    25    1
    21    25    26   ar
    22    26    27   ar
    23    27    28   ar
    24    28    29   ar
    25    29    30   ar
    26    30    31   ar
    27    31    32   ar
    28    32    33   ar
    29    33    34   ar
    30     3    21    1
    31    21    22    1
    32    22    23    1
    33     9     4    1
    34    19    12   ar
    35    34    25   ar
    36    23    21    1
    37    19     9    1
    38    34    29   ar
    39     6    20    1
@<TRIPOS>MOLECULE
*****
 34 39 0 0 0
SMALL
GASTEIGER

@<TRIPOS>ATOM
      1 O          63.4633   87.7318   13.9147 O.2     1  UNL1       -0.2747
      2 C          63.0143   87.7681   12.4840 C.2     1  UNL1        0.2294
      3 N          62.5314   86.5141   11.8174 N.am    1  UNL1       -0.2770
      4 C          63.0483   89.0584   11.7198 C.3     1  UNL1        0.1211
      5 C          62.2474   89.2052   10.4600 C.3     1  UNL1        0.0804
      6 N          62.2814   90.4955    9.6958 N.3     1  UNL1       -0.2969
      7 C          63.1162   91.6390   10.1914 C.3     1  UNL1        0.0714
      8 C          63.9170   91.4922   11.4512 C.3     1  UNL1        0.0490
      9 C          63.8830   90.2019   12.2154 C.3     1  UNL1        0.1224
     10 O          63.9480   88.9788   13.0814 O.3     1  UNL1       -0.3492
     11 C          64.8646   89.2733   14.2316 C.3     1  UNL1        0.1687
     12 C          65.3662   90.6785   14.0766 C.ar    1  UNL1        0.0079
     13 C          66.2969   91.5096   14.9090 C.ar    1  UNL1        0.0299
     14 C          66.6210   92.9146   14.4954 C.ar    1  UNL1        0.1671
     15 F          67.5517   93.7456   15.3278 F       1  UNL1       -0.2018
     16 C          66.0144   93.4884   13.2493 C.ar    1  UNL1        0.1671
     17 F          66.3385   94.8933   12.8357 F       1  UNL1       -0.2018
     18 C          65.0836   92.6573   12.4168 C.ar    1  UNL1        0.0297
     19 C          64.7595   91.2524   12.8304 C.ar    1  UNL1        0.0033
     20 H          61.3202   90.8330    9.6450 H       1  UNL1        0.1233
     21 C          62.0823   86.5505   10.3866 C.3     1  UNL1        0.0758
     22 C          62.4091   86.5846    8.9230 C.3     1  UNL1        0.0215
     23 C          60.9779   86.5793    9.3721 C.3     1  UNL1        0.0215
     24 C          62.4974   85.2239   12.5816 C.3     1  UNL1        0.1201
     25 C          62.9444   83.9514   11.9251 C.ar    1  UNL1        0.0007
     26 C          63.7475   84.0024   10.6593 C.ar    1  UNL1        0.0181
     27 C          64.1945   82.7300   10.0028 C.ar    1  UNL1        0.0986
     28 N          63.8383   81.4064   10.6121 N.ar    1  UNL1       -0.2439
     29 C          63.0352   81.3553   11.8780 C.ar    1  UNL1        0.0811
     30 C          62.6791   80.0317   12.4873 C.ar    1  UNL1        0.0191
     31 C          61.8759   79.9806   13.7531 C.ar    1  UNL1        0.0015
     32 C          61.4290   81.2531   14.4096 C.ar    1  UNL1        0.0001
     33 C          61.7851   82.5767   13.8003 C.ar    1  UNL1        0.0012
     34 C          62.5882   82.6278   12.5345 C.ar    1  UNL1        0.0153
@<TRIPOS>BOND
     1     1     2    2
     2     4     2    1
     3     4     5    1
     4     5     6    1
     5     6     7    1
     6     7     8    1
     7     9     8    1
     8     9    10    1
     9    10    11    1
    10    11    12    1
    11    12    13   ar
    12    13    14   ar
    13    14    15    1
    14    14    16   ar
    15    16    17    1
    16    16    18   ar
    17    18    19   ar
    18     2     3   am
    19     3    24    1
    20    24    25    1
    21    25    26   ar
    22    26    27   ar
    23    27    28   ar
    24    28    29   ar
    25    29    30   ar
    26    30    31   ar
    27    31    32   ar
    28    32    33   ar
    29    33    34   ar
    30     3    21    1
    31    21    22    1
    32    22    23    1
    33     9     4    1
    34    19    12   ar
    35    34    25   ar
    36    23    21    1
    37    19     9    1
    38    34    29   ar
    39     6    20    1
@<TRIPOS>MOLECULE
*****
 34 39 0 0 0
SMALL
GASTEIGER

@<TRIPOS>ATOM
      1 O          61.1859   96.8559   -1.2929 O.2     1  UNL1       -0.2747
      2 C          61.9897   95.6945   -1.7978 C.2     1  UNL1        0.2294
      3 N          61.8125   95.2164   -3.2085 N.am    1  UNL1       -0.2770
      4 C          62.9708   95.0110   -0.8919 C.3     1  UNL1        0.1211
      5 C          64.4430   95.1353   -1.1506 C.3     1  UNL1        0.0804
      6 N          65.4240   94.4519   -0.2447 N.3     1  UNL1       -0.2969
      7 C          64.9327   93.6442    0.9198 C.3     1  UNL1        0.0714
      8 C          63.4604   93.5199    1.1785 C.3     1  UNL1        0.0490
      9 C          62.4795   94.2033    0.2727 C.3     1  UNL1        0.1224
     10 O          61.3853   94.8267   -0.5424 O.3     1  UNL1       -0.3492
     11 C          60.0724   94.4425    0.0731 C.3     1  UNL1        0.1687
     12 C          60.3551   93.5815    1.2685 C.ar    1  UNL1        0.0079
     13 C          59.4502   92.9131    2.2605 C.ar    1  UNL1        0.0299
     14 C          60.0329   92.0968    3.3760 C.ar    1  UNL1        0.1671
     15 F          59.1280   91.4284    4.3681 F       1  UNL1       -0.2018
     16 C          61.5205   91.9490    3.4994 C.ar    1  UNL1        0.1671
     17 F          62.1031   91.1328    4.6148 F       1  UNL1       -0.2018
     18 C          62.4255   92.6175    2.5073 C.ar    1  UNL1        0.0297
     19 C          61.8428   93.4337    1.3918 C.ar    1  UNL1        0.0033
     20 H          66.0294   95.1792    0.1359 H       1  UNL1        0.1233
     21 C          62.6164   94.0548   -3.7133 C.3     1  UNL1        0.0758
     22 C          63.2650   92.7232   -3.4766 C.3     1  UNL1        0.0215
     23 C          63.3601   93.3748   -4.8243 C.3     1  UNL1        0.0215
     24 C          60.8316   95.8997   -4.1143 C.3     1  UNL1        0.1201
     25 C          60.0376   95.0971   -5.1019 C.ar    1  UNL1        0.0007
     26 C          60.2465   95.2993   -6.5734 C.ar    1  UNL1        0.0181
     27 C          59.4525   94.4967   -7.5610 C.ar    1  UNL1        0.0986
     28 N          58.4495   93.4918   -7.0770 N.ar    1  UNL1       -0.2439
     29 C          58.2406   93.2895   -5.6054 C.ar    1  UNL1        0.0811
     30 C          57.2377   92.2846   -5.1215 C.ar    1  UNL1        0.0191
     31 C          57.0287   92.0823   -3.6500 C.ar    1  UNL1        0.0015
     32 C          57.8228   92.8850   -2.6624 C.ar    1  UNL1        0.0001
     33 C          58.8257   93.8899   -3.1463 C.ar    1  UNL1        0.0012
     34 C          59.0346   94.0921   -4.6179 C.ar    1  UNL1        0.0153
@<TRIPOS>BOND
     1     1     2    2
     2     4     2    1
     3     4     5    1
     4     5     6    1
     5     6     7    1
     6     7     8    1
     7     9     8    1
     8     9    10    1
     9    10    11    1
    10    11    12    1
    11    12    13   ar
    12    13    14   ar
    13    14    15    1
    14    14    16   ar
    15    16    17    1
    16    16    18   ar
    17    18    19   ar
    18     2     3   am
    19     3    24    1
    20    24    25    1
    21    25    26   ar
    22    26    27   ar
    23    27    28   ar
    24    28    29   ar
    25    29    30   ar
    26    30    31   ar
    27    31    32   ar
    28    32    33   ar
    29    33    34   ar
    30     3    21    1
    31    21    22    1
    32    22    23    1
    33     9     4    1
    34    19    12   ar
    35    34    25   ar
    36    23    21    1
    37    19     9    1
    38    34    29   ar
    39     6    20    1
@<TRIPOS>MOLECULE
*****
 34 39 0 0 0
SMALL
GASTEIGER

@<TRIPOS>ATOM
      1 O          57.8518   96.6324   -0.5834 O.2     1  UNL1       -0.2747
      2 C          58.2178   95.5328   -1.5356 C.2     1  UNL1        0.2294
      3 N          57.8529   95.6445   -2.9863 N.am    1  UNL1       -0.2770
      4 C          58.9487   94.3213   -1.0372 C.3     1  UNL1        0.1211
      5 C          58.2000   93.0477   -0.7780 C.3     1  UNL1        0.0804
      6 N          58.9309   91.8363   -0.2797 N.3     1  UNL1       -0.2969
      7 C          60.4104   91.8986   -0.0406 C.3     1  UNL1        0.0714
      8 C          61.1590   93.1723   -0.2998 C.3     1  UNL1        0.0490
      9 C          60.4282   94.3836   -0.7981 C.3     1  UNL1        0.1224
     10 O          59.8358   95.6691   -1.2950 O.3     1  UNL1       -0.3492
     11 C          60.9421   96.6755   -1.4100 C.3     1  UNL1        0.1687
     12 C          62.2183   96.0121   -0.9842 C.ar    1  UNL1        0.0079
     13 C          63.6285   96.5147   -0.8920 C.ar    1  UNL1        0.0299
     14 C          64.7212   95.6009   -0.4216 C.ar    1  UNL1        0.1671
     15 F          66.1314   96.1035   -0.3293 F       1  UNL1       -0.2018
     16 C          64.4036   94.1846   -0.0435 C.ar    1  UNL1        0.1671
     17 F          65.4962   93.2708    0.4269 F       1  UNL1       -0.2018
     18 C          62.9933   93.6819   -0.1357 C.ar    1  UNL1        0.0297
     19 C          61.9007   94.5956   -0.6061 C.ar    1  UNL1        0.0033
     20 H          58.7741   91.0958   -0.9634 H       1  UNL1        0.1233
     21 C          58.2189   94.5448   -3.9385 C.3     1  UNL1        0.0758
     22 C          57.9769   93.1720   -4.4926 C.3     1  UNL1        0.0215
     23 C          59.0949   94.0129   -5.0338 C.3     1  UNL1        0.0215
     24 C          57.1221   96.8559   -3.4847 C.3     1  UNL1        0.1201
     25 C          55.9141   96.6959   -4.3595 C.ar    1  UNL1        0.0007
     26 C          56.0543   96.7633   -5.8513 C.ar    1  UNL1        0.0181
     27 C          54.8464   96.6033   -6.7261 C.ar    1  UNL1        0.0986
     28 N          53.4982   96.3760   -6.1090 N.ar    1  UNL1       -0.2439
     29 C          53.3580   96.3086   -4.6171 C.ar    1  UNL1        0.0811
     30 C          52.0099   96.0812   -4.0000 C.ar    1  UNL1        0.0191
     31 C          51.8697   96.0138   -2.5081 C.ar    1  UNL1        0.0015
     32 C          53.0777   96.1738   -1.6333 C.ar    1  UNL1        0.0001
     33 C          54.4258   96.4011   -2.2504 C.ar    1  UNL1        0.0012
     34 C          54.5660   96.4685   -3.7423 C.ar    1  UNL1        0.0153
@<TRIPOS>BOND
     1     1     2    2
     2     4     2    1
     3     4     5    1
     4     5     6    1
     5     6     7    1
     6     7     8    1
     7     9     8    1
     8     9    10    1
     9    10    11    1
    10    11    12    1
    11    12    13   ar
    12    13    14   ar
    13    14    15    1
    14    14    16   ar
    15    16    17    1
    16    16    18   ar
    17    18    19   ar
    18     2     3   am
    19     3    24    1
    20    24    25    1
    21    25    26   ar
    22    26    27   ar
    23    27    28   ar
    24    28    29   ar
    25    29    30   ar
    26    30    31   ar
    27    31    32   ar
    28    32    33   ar
    29    33    34   ar
    30     3    21    1
    31    21    22    1
    32    22    23    1
    33     9     4    1
    34    19    12   ar
    35    34    25   ar
    36    23    21    1
    37    19     9    1
    38    34    29   ar
    39     6    20    1
@<TRIPOS>MOLECULE
*****
 34 39 0 0 0
SMALL
GASTEIGER

@<TRIPOS>ATOM
      1 O          60.5474   96.8557   -0.2605 O.2     1  UNL1       -0.2747
      2 C          61.2761   95.9464   -1.2051 C.2     1  UNL1        0.2294
      3 N          60.7171   95.6807   -2.5715 N.am    1  UNL1       -0.2770
      4 C          62.5637   95.3027   -0.7833 C.3     1  UNL1        0.1211
      5 C          63.8442   95.6621   -1.4768 C.3     1  UNL1        0.0804
      6 N          65.1317   95.0185   -1.0550 N.3     1  UNL1       -0.2969
      7 C          65.1387   94.0154    0.0603 C.3     1  UNL1        0.0714
      8 C          63.8581   93.6560    0.7538 C.3     1  UNL1        0.0490
      9 C          62.5706   94.2997    0.3320 C.3     1  UNL1        0.1224
     10 O          61.2132   94.8576    0.0217 O.3     1  UNL1       -0.3492
     11 C          60.2262   94.2220    0.9555 C.3     1  UNL1        0.1687
     12 C          60.9736   93.2713    1.8429 C.ar    1  UNL1        0.0079
     13 C          60.5221   92.3681    2.9520 C.ar    1  UNL1        0.0299
     14 C          61.5194   91.5128    3.6760 C.ar    1  UNL1        0.1671
     15 F          61.0678   90.6096    4.7851 F       1  UNL1       -0.2018
     16 C          62.9682   91.5608    3.2906 C.ar    1  UNL1        0.1671
     17 F          63.9655   90.7056    4.0145 F       1  UNL1       -0.2018
     18 C          63.4199   92.4641    2.1814 C.ar    1  UNL1        0.0297
     19 C          62.4226   93.3193    1.4576 C.ar    1  UNL1        0.0033
     20 H          65.7605   95.7721   -0.7771 H       1  UNL1        0.1233
     21 C          61.4458   94.7714   -3.5161 C.3     1  UNL1        0.0758
     22 C          62.2829   93.5503   -3.7578 C.3     1  UNL1        0.0215
     23 C          61.8709   94.4175   -4.9103 C.3     1  UNL1        0.0215
     24 C          59.4296   96.3243   -2.9933 C.3     1  UNL1        0.1201
     25 C          58.1490   95.5451   -2.9403 C.ar    1  UNL1        0.0007
     26 C          57.4477   95.3429   -1.6299 C.ar    1  UNL1        0.0181
     27 C          56.1671   94.5637   -1.5770 C.ar    1  UNL1        0.0986
     28 N          55.5877   93.9866   -2.8345 N.ar    1  UNL1       -0.2439
     29 C          56.2890   94.1888   -4.1450 C.ar    1  UNL1        0.0811
     30 C          55.7097   93.6117   -5.4025 C.ar    1  UNL1        0.0191
     31 C          56.4110   93.8139   -6.7129 C.ar    1  UNL1        0.0015
     32 C          57.6916   94.5931   -6.7658 C.ar    1  UNL1        0.0001
     33 C          58.2710   95.1702   -5.5083 C.ar    1  UNL1        0.0012
     34 C          57.5697   94.9680   -4.1979 C.ar    1  UNL1        0.0153
@<TRIPOS>BOND
     1     1     2    2
     2     4     2    1
     3     4     5    1
     4     5     6    1
     5     6     7    1
     6     7     8    1
     7     9     8    1
     8     9    10    1
     9    10    11    1
    10    11    12    1
    11    12    13   ar
    12    13    14   ar
    13    14    15    1
    14    14    16   ar
    15    16    17    1
    16    16    18   ar
    17    18    19   ar
    18     2     3   am
    19     3    24    1
    20    24    25    1
    21    25    26   ar
    22    26    27   ar
    23    27    28   ar
    24    28    29   ar
    25    29    30   ar
    26    30    31   ar
    27    31    32   ar
    28    32    33   ar
    29    33    34   ar
    30     3    21    1
    31    21    22    1
    32    22    23    1
    33     9     4    1
    34    19    12   ar
    35    34    25   ar
    36    23    21    1
    37    19     9    1
    38    34    29   ar
    39     6    20    1
@<TRIPOS>MOLECULE
*****
 34 39 0 0 0
SMALL
GASTEIGER

@<TRIPOS>ATOM
      1 O          65.3239   85.1999   13.1075 O.2     1  UNL1       -0.2747
      2 C          64.3561   85.8193   14.0717 C.2     1  UNL1        0.2294
      3 N          63.6924   84.9721   15.1165 N.am    1  UNL1       -0.2770
      4 C          64.0520   87.2860   13.9910 C.3     1  UNL1        0.1211
      5 C          64.6587   88.2334   14.9831 C.3     1  UNL1        0.0804
      6 N          64.3546   89.7000   14.9024 N.3     1  UNL1       -0.2969
      7 C          63.4438   90.2192   13.8296 C.3     1  UNL1        0.0714
      8 C          62.8371   89.2718   12.8375 C.3     1  UNL1        0.0490
      9 C          63.1412   87.8052   12.9182 C.3     1  UNL1        0.1224
     10 O          63.3520   86.3207   12.8738 O.3     1  UNL1       -0.3492
     11 C          62.5582   85.7739   11.7245 C.3     1  UNL1        0.1687
     12 C          61.8568   86.9204   11.0585 C.ar    1  UNL1        0.0079
     13 C          60.9366   86.9835    9.8757 C.ar    1  UNL1        0.0299
     14 C          60.3766   88.3019    9.4305 C.ar    1  UNL1        0.1671
     15 F          59.4564   88.3650    8.2477 F       1  UNL1       -0.2018
     16 C          60.7369   89.5573   10.1683 C.ar    1  UNL1        0.1671
     17 F          60.1769   90.8757    9.7232 F       1  UNL1       -0.2018
     18 C          61.6571   89.4943   11.3512 C.ar    1  UNL1        0.0297
     19 C          62.2171   88.1758   11.7963 C.ar    1  UNL1        0.0033
     20 H          65.2474   90.1800   14.7884 H       1  UNL1        0.1233
     21 C          62.7245   85.5916   16.0807 C.3     1  UNL1        0.0758
     22 C          62.4554   86.3137   17.3676 C.3     1  UNL1        0.0215
     23 C          61.3173   85.9425   16.4637 C.3     1  UNL1        0.0215
     24 C          63.9964   83.5055   15.1972 C.3     1  UNL1        0.1201
     25 C          63.1659   82.5238   14.4249 C.ar    1  UNL1        0.0007
     26 C          62.0493   81.7879   15.1043 C.ar    1  UNL1        0.0181
     27 C          61.2189   80.8061   14.3319 C.ar    1  UNL1        0.0986
     28 N          61.5050   80.5603   12.8802 N.ar    1  UNL1       -0.2439
     29 C          62.6217   81.2962   12.2007 C.ar    1  UNL1        0.0811
     30 C          62.9078   81.0503   10.7489 C.ar    1  UNL1        0.0191
     31 C          64.0244   81.7862   10.0695 C.ar    1  UNL1        0.0015
     32 C          64.8549   82.7680   10.8419 C.ar    1  UNL1        0.0001
     33 C          64.5687   83.0138   12.2936 C.ar    1  UNL1        0.0012
     34 C          63.4521   82.2779   12.9730 C.ar    1  UNL1        0.0153
@<TRIPOS>BOND
     1     1     2    2
     2     4     2    1
     3     4     5    1
     4     5     6    1
     5     6     7    1
     6     7     8    1
     7     9     8    1
     8     9    10    1
     9    10    11    1
    10    11    12    1
    11    12    13   ar
    12    13    14   ar
    13    14    15    1
    14    14    16   ar
    15    16    17    1
    16    16    18   ar
    17    18    19   ar
    18     2     3   am
    19     3    24    1
    20    24    25    1
    21    25    26   ar
    22    26    27   ar
    23    27    28   ar
    24    28    29   ar
    25    29    30   ar
    26    30    31   ar
    27    31    32   ar
    28    32    33   ar
    29    33    34   ar
    30     3    21    1
    31    21    22    1
    32    22    23    1
    33     9     4    1
    34    19    12   ar
    35    34    25   ar
    36    23    21    1
    37    19     9    1
    38    34    29   ar
    39     6    20    1
@<TRIPOS>MOLECULE
*****
 34 39 0 0 0
SMALL
GASTEIGER

@<TRIPOS>ATOM
      1 O          63.7070   90.3945   11.7159 O.2     1  UNL1       -0.2747
      2 C          63.5344   89.3641   12.7922 C.2     1  UNL1        0.2294
      3 N          63.7881   89.7269   14.2254 N.am    1  UNL1       -0.2770
      4 C          63.1081   87.9709   12.4354 C.3     1  UNL1        0.1211
      5 C          63.5993   86.8063   13.2431 C.3     1  UNL1        0.0804
      6 N          63.1730   85.4131   12.8862 N.3     1  UNL1       -0.2969
      7 C          62.2556   85.1846   11.7217 C.3     1  UNL1        0.0714
      8 C          61.7644   86.3492   10.9141 C.3     1  UNL1        0.0490
      9 C          62.1907   87.7424   11.2709 C.3     1  UNL1        0.1224
     10 O          62.5296   89.1845   11.5068 O.3     1  UNL1       -0.3492
     11 C          61.8227   90.0028   10.4672 C.3     1  UNL1        0.1687
     12 C          61.0469   89.0665    9.5888 C.ar    1  UNL1        0.0079
     13 C          60.1628   89.3055    8.4010 C.ar    1  UNL1        0.0299
     14 C          59.5060   88.1475    7.7097 C.ar    1  UNL1        0.1671
     15 F          58.6219   88.3865    6.5218 F       1  UNL1       -0.2018
     16 C          59.7334   86.7505    8.2064 C.ar    1  UNL1        0.1671
     17 F          59.0767   85.5926    7.5152 F       1  UNL1       -0.2018
     18 C          60.6176   86.5115    9.3944 C.ar    1  UNL1        0.0297
     19 C          61.2743   87.6694   10.0856 C.ar    1  UNL1        0.0033
     20 H          62.7073   85.0281   13.7080 H       1  UNL1        0.1233
     21 C          63.6155   88.6965   15.3018 C.3     1  UNL1        0.0758
     22 C          63.9151   87.3359   15.8577 C.3     1  UNL1        0.0215
     23 C          63.0169   88.2724   16.6101 C.3     1  UNL1        0.0215
     24 C          64.2143   91.1201   14.5823 C.3     1  UNL1        0.1201
     25 C          65.6193   91.5680   14.3078 C.ar    1  UNL1        0.0007
     26 C          66.6847   91.3740   15.3457 C.ar    1  UNL1        0.0181
     27 C          68.0897   91.8219   15.0712 C.ar    1  UNL1        0.0986
     28 N          68.4293   92.4640   13.7588 N.ar    1  UNL1       -0.2439
     29 C          67.3639   92.6581   12.7208 C.ar    1  UNL1        0.0811
     30 C          67.7035   93.3002   11.4084 C.ar    1  UNL1        0.0191
     31 C          66.6381   93.4942   10.3706 C.ar    1  UNL1        0.0015
     32 C          65.2331   93.0463   10.6450 C.ar    1  UNL1        0.0001
     33 C          64.8935   92.4042   11.9574 C.ar    1  UNL1        0.0012
     34 C          65.9589   92.2101   12.9953 C.ar    1  UNL1        0.0153
@<TRIPOS>BOND
     1     1     2    2
     2     4     2    1
     3     4     5    1
     4     5     6    1
     5     6     7    1
     6     7     8    1
     7     9     8    1
     8     9    10    1
     9    10    11    1
    10    11    12    1
    11    12    13   ar
    12    13    14   ar
    13    14    15    1
    14    14    16   ar
    15    16    17    1
    16    16    18   ar
    17    18    19   ar
    18     2     3   am
    19     3    24    1
    20    24    25    1
    21    25    26   ar
    22    26    27   ar
    23    27    28   ar
    24    28    29   ar
    25    29    30   ar
    26    30    31   ar
    27    31    32   ar
    28    32    33   ar
    29    33    34   ar
    30     3    21    1
    31    21    22    1
    32    22    23    1
    33     9     4    1
    34    19    12   ar
    35    34    25   ar
    36    23    21    1
    37    19     9    1
    38    34    29   ar
    39     6    20    1
@<TRIPOS>MOLECULE
*****
 34 39 0 0 0
SMALL
GASTEIGER

@<TRIPOS>ATOM
      1 O          59.5494   96.8262   -2.1747 O.2     1  UNL1       -0.2747
      2 C          60.3435   96.1301   -3.2400 C.2     1  UNL1        0.2294
      3 N          59.6397   95.4574   -4.3811 N.am    1  UNL1       -0.2770
      4 C          61.8414   96.1067   -3.1642 C.3     1  UNL1        0.1211
      5 C          62.6554   96.8547   -4.1780 C.3     1  UNL1        0.0804
      6 N          64.1533   96.8313   -4.1021 N.3     1  UNL1       -0.2969
      7 C          64.8372   96.0599   -3.0125 C.3     1  UNL1        0.0714
      8 C          64.0231   95.3119   -1.9987 C.3     1  UNL1        0.0490
      9 C          62.5253   95.3353   -2.0746 C.3     1  UNL1        0.1224
     10 O          61.0276   95.2668   -2.0230 O.3     1  UNL1       -0.3492
     11 C          60.6427   94.4136   -0.8509 C.3     1  UNL1        0.1687
     12 C          61.9023   93.9547   -0.1780 C.ar    1  UNL1        0.0079
     13 C          62.1402   93.0918    1.0256 C.ar    1  UNL1        0.0299
     14 C          63.5416   92.7984    1.4730 C.ar    1  UNL1        0.1671
     15 F          63.7795   91.9355    2.6766 F       1  UNL1       -0.2018
     16 C          64.7050   93.3680    0.7167 C.ar    1  UNL1        0.1671
     17 F          66.1064   93.0747    1.1641 F       1  UNL1       -0.2018
     18 C          64.4672   94.2310   -0.4869 C.ar    1  UNL1        0.0297
     19 C          63.0658   94.5243   -0.9343 C.ar    1  UNL1        0.0033
     20 H          64.4588   97.8004   -4.0131 H       1  UNL1        0.1233
     21 C          60.4338   94.7613   -5.4464 C.3     1  UNL1        0.0758
     22 C          61.6105   93.9236   -5.8510 C.3     1  UNL1        0.0215
     23 C          60.6327   94.3935   -6.8869 C.3     1  UNL1        0.0215
     24 C          58.1418   95.4808   -4.4569 C.3     1  UNL1        0.1201
     25 C          57.3281   94.7172   -3.4546 C.ar    1  UNL1        0.0007
     26 C          57.9000   93.4955   -2.7986 C.ar    1  UNL1        0.0181
     27 C          57.0863   92.7319   -1.7962 C.ar    1  UNL1        0.0986
     28 N          55.7006   93.1900   -1.4498 N.ar    1  UNL1       -0.2439
     29 C          55.1286   94.4118   -2.1057 C.ar    1  UNL1        0.0811
     30 C          53.7430   94.8699   -1.7593 C.ar    1  UNL1        0.0191
     31 C          53.1711   96.0916   -2.4152 C.ar    1  UNL1        0.0015
     32 C          53.9848   96.8552   -3.4176 C.ar    1  UNL1        0.0001
     33 C          55.3705   96.3971   -3.7640 C.ar    1  UNL1        0.0012
     34 C          55.9424   95.1754   -3.1081 C.ar    1  UNL1        0.0153
@<TRIPOS>BOND
     1     1     2    2
     2     4     2    1
     3     4     5    1
     4     5     6    1
     5     6     7    1
     6     7     8    1
     7     9     8    1
     8     9    10    1
     9    10    11    1
    10    11    12    1
    11    12    13   ar
    12    13    14   ar
    13    14    15    1
    14    14    16   ar
    15    16    17    1
    16    16    18   ar
    17    18    19   ar
    18     2     3   am
    19     3    24    1
    20    24    25    1
    21    25    26   ar
    22    26    27   ar
    23    27    28   ar
    24    28    29   ar
    25    29    30   ar
    26    30    31   ar
    27    31    32   ar
    28    32    33   ar
    29    33    34   ar
    30     3    21    1
    31    21    22    1
    32    22    23    1
    33     9     4    1
    34    19    12   ar
    35    34    25   ar
    36    23    21    1
    37    19     9    1
    38    34    29   ar
    39     6    20    1
