@<TRIPOS>MOLECULE
*****
 33 37 0 0 0
SMALL
GASTEIGER

@<TRIPOS>ATOM
      1 C          60.7338   94.7240   -0.7598 C.ar    1  UNL1        0.1389
      2 C          59.9386   94.8438   -2.0260 C.ar    1  UNL1        0.0397
      3 C          60.6227   94.7233   -3.3555 C.ar    1  UNL1        0.0353
      4 C          62.1019   94.4831   -3.4188 C.ar    1  UNL1        0.0779
      5 C          62.8971   94.3633   -2.1526 C.ar    1  UNL1        0.0219
      6 C          62.2130   94.4838   -0.8231 C.ar    1  UNL1        0.0394
      7 N          62.7860   94.3626   -4.7483 N.2     1  UNL1       -0.2641
      8 C          61.9908   94.4824   -6.0145 C.3     1  UNL1        0.1696
      9 C          60.5114   94.7227   -5.9512 C.2     1  UNL1        0.0912
     10 N          59.4739   94.8831   -7.0225 N.am    1  UNL1       -0.1628
     11 C          58.1487   95.1028   -6.3551 C.2     1  UNL1        0.3349
     12 O          56.8355   95.3106   -7.0496 O.2     1  UNL1       -0.2497
     13 N          58.3671   95.0781   -4.8714 N.am    1  UNL1       -0.2196
     14 C          59.8274   94.8431   -4.6217 C.2     1  UNL1        0.0743
     15 C          63.0083   94.3640    0.4431 C.ar    1  UNL1        0.0526
     16 C          64.0199   95.3509    0.9457 C.ar    1  UNL1        0.1007
     17 C          64.4139   96.6310    0.2703 C.3     1  UNL1        0.0557
     18 N          64.5684   94.8331    2.2422 N.ar    1  UNL1       -0.0817
     19 O          63.8957   93.5260    2.5410 O.2     1  UNL1       -0.3581
     20 C          62.9316   93.2361    1.4291 C.ar    1  UNL1        0.1545
     21 C          62.0461   92.0301    1.3220 C.3     1  UNL1        0.0754
     22 C          57.3107   95.2569   -3.8216 C.ar    1  UNL1        0.0556
     23 C          56.9930   96.6281   -3.3032 C.ar    1  UNL1        0.0150
     24 C          55.9366   96.8069   -2.2534 C.ar    1  UNL1        0.0013
     25 C          55.1980   95.6145   -1.7219 C.ar    1  UNL1       -0.0002
     26 C          55.5157   94.2432   -2.2402 C.ar    1  UNL1       -0.0030
     27 C          56.5721   94.0644   -3.2901 C.ar    1  UNL1       -0.0087
     28 C          56.8898   92.6932   -3.8083 C.3     1  UNL1        0.0201
     29 C          57.8314   92.4775   -2.6609 C.3     1  UNL1        0.0044
     30 C          55.9481   92.9087   -4.9559 C.3     1  UNL1        0.0044
     31 C          57.2074   91.3218   -4.3267 C.3     1  UNL1        0.0044
     32 C          59.7835   96.1991    1.1561 C.3     1  UNL1        0.2525
     33 O          60.0497   94.8445    0.5697 O.3     1  UNL1       -0.4714
@<TRIPOS>BOND
     1    32    33    1
     2    33     1    1
     3     1     2   ar
     4     2     3   ar
     5     3     4   ar
     6     4     5   ar
     7     5     6   ar
     8     6    15    1
     9    15    16   ar
    10    16    17    1
    11    16    18   ar
    12    18    19   ar
    13    19    20   ar
    14    20    21    1
    15     4     7    2
    16     7     8    1
    17     8     9    1
    18     9    10    2
    19    10    11    1
    20    11    12    2
    21    11    13   am
    22    13    22    1
    23    22    23   ar
    24    23    24   ar
    25    24    25   ar
    26    25    26   ar
    27    26    27   ar
    28    27    28    1
    29    28    29    1
    30    28    30    1
    31    28    31    1
    32    13    14    1
    33     6     1   ar
    34    20    15   ar
    35    14     9    1
    36    14     3    2
    37    27    22   ar
@<TRIPOS>MOLECULE
*****
 33 37 0 0 0
SMALL
GASTEIGER

@<TRIPOS>ATOM
      1 C          63.6339   88.7351   13.0329 C.ar    1  UNL1        0.1389
      2 C          62.8768   88.0019   11.9656 C.ar    1  UNL1        0.0397
      3 C          61.9091   88.7414   11.0899 C.ar    1  UNL1        0.0353
      4 C          61.6986   90.2141   11.2815 C.ar    1  UNL1        0.0779
      5 C          62.4557   90.9473   12.3488 C.ar    1  UNL1        0.0219
      6 C          63.4234   90.2078   13.2245 C.ar    1  UNL1        0.0394
      7 N          60.7310   90.9536   10.4058 N.2     1  UNL1       -0.2641
      8 C          59.9739   90.2204    9.3385 C.3     1  UNL1        0.1696
      9 C          60.1844   88.7476    9.1469 C.2     1  UNL1        0.0912
     10 N          59.5853   87.7648    8.1850 N.am    1  UNL1       -0.1628
     11 C          60.1826   86.4180    8.4662 C.2     1  UNL1        0.3349
     12 O          59.8670   85.1444    7.7394 O.2     1  UNL1       -0.2497
     13 N          61.1509   86.5683    9.6019 N.am    1  UNL1       -0.2196
     14 C          61.1520   88.0081   10.0226 C.2     1  UNL1        0.0743
     15 C          64.1805   90.9411   14.2918 C.ar    1  UNL1        0.0526
     16 C          65.2591   91.9588   14.0666 C.ar    1  UNL1        0.1007
     17 C          65.7701   92.4220   12.7346 C.3     1  UNL1        0.0557
     18 N          65.7371   92.4321   15.4073 N.ar    1  UNL1       -0.0817
     19 O          64.9539   91.7068   16.4612 O.2     1  UNL1       -0.3581
     20 C          63.9918   90.7854   15.7717 C.ar    1  UNL1        0.1545
     21 C          63.0130   89.8690   16.4442 C.3     1  UNL1        0.0754
     22 C          61.9737   85.4714   10.2101 C.ar    1  UNL1        0.0556
     23 C          61.8892   85.1990   11.6827 C.ar    1  UNL1        0.0150
     24 C          62.7120   84.1021   12.2909 C.ar    1  UNL1        0.0013
     25 C          63.6193   83.2777   11.4265 C.ar    1  UNL1       -0.0002
     26 C          63.7037   83.5502    9.9539 C.ar    1  UNL1       -0.0030
     27 C          62.8809   84.6470    9.3457 C.ar    1  UNL1       -0.0087
     28 C          62.9655   84.9194    7.8731 C.3     1  UNL1        0.0201
     29 C          63.7256   86.1824    8.1502 C.3     1  UNL1        0.0044
     30 C          62.2053   83.6563    7.5958 C.3     1  UNL1        0.0044
     31 C          63.0500   85.1917    6.4004 C.3     1  UNL1        0.0044
     32 C          64.1907   86.7087   14.5605 C.3     1  UNL1        0.2525
     33 O          64.6015   87.9956   13.9085 O.3     1  UNL1       -0.4714
@<TRIPOS>BOND
     1    32    33    1
     2    33     1    1
     3     1     2   ar
     4     2     3   ar
     5     3     4   ar
     6     4     5   ar
     7     5     6   ar
     8     6    15    1
     9    15    16   ar
    10    16    17    1
    11    16    18   ar
    12    18    19   ar
    13    19    20   ar
    14    20    21    1
    15     4     7    2
    16     7     8    1
    17     8     9    1
    18     9    10    2
    19    10    11    1
    20    11    12    2
    21    11    13   am
    22    13    22    1
    23    22    23   ar
    24    23    24   ar
    25    24    25   ar
    26    25    26   ar
    27    26    27   ar
    28    27    28    1
    29    28    29    1
    30    28    30    1
    31    28    31    1
    32    13    14    1
    33     6     1   ar
    34    20    15   ar
    35    14     9    1
    36    14     3    2
    37    27    22   ar
@<TRIPOS>MOLECULE
*****
 33 37 0 0 0
SMALL
GASTEIGER

@<TRIPOS>ATOM
      1 C          60.8845   93.6177   -1.2657 C.ar    1  UNL1        0.1389
      2 C          60.0783   93.5634   -2.5294 C.ar    1  UNL1        0.0397
      3 C          60.6759   94.0368   -3.8212 C.ar    1  UNL1        0.0353
      4 C          62.0798   94.5643   -3.8493 C.ar    1  UNL1        0.0779
      5 C          62.8860   94.6186   -2.5856 C.ar    1  UNL1        0.0219
      6 C          62.2883   94.1453   -1.2938 C.ar    1  UNL1        0.0394
      7 N          62.6774   95.0377   -5.1411 N.2     1  UNL1       -0.2641
      8 C          61.8712   94.9834   -6.4049 C.3     1  UNL1        0.1696
      9 C          60.4673   94.4558   -6.3768 C.2     1  UNL1        0.0912
     10 N          59.4384   94.2826   -7.4545 N.am    1  UNL1       -0.1628
     11 C          58.2049   93.7022   -6.8287 C.2     1  UNL1        0.3349
     12 O          56.9289   93.3663   -7.5421 O.2     1  UNL1       -0.2497
     13 N          58.4714   93.5167   -5.3643 N.am    1  UNL1       -0.2196
     14 C          59.8696   93.9825   -5.0850 C.2     1  UNL1        0.0743
     15 C          63.0946   94.1996   -0.0300 C.ar    1  UNL1        0.0526
     16 C          63.0966   93.1686    1.0595 C.ar    1  UNL1        0.1007
     17 C          62.2928   91.9023    1.0766 C.3     1  UNL1        0.0557
     18 N          64.0437   93.6262    2.1289 N.ar    1  UNL1       -0.0817
     19 O          64.6270   94.9401    1.7004 O.2     1  UNL1       -0.3581
     20 C          64.0404   95.2944    0.3661 C.ar    1  UNL1        0.1545
     21 C          64.3459   96.5271   -0.4320 C.3     1  UNL1        0.0754
     22 C          57.5087   92.9628   -4.3562 C.ar    1  UNL1        0.0556
     23 C          57.4473   91.4842   -4.1114 C.ar    1  UNL1        0.0150
     24 C          56.4847   90.9302   -3.1032 C.ar    1  UNL1        0.0013
     25 C          55.5834   91.8548   -2.3399 C.ar    1  UNL1       -0.0002
     26 C          55.6447   93.3334   -2.5847 C.ar    1  UNL1       -0.0030
     27 C          56.6074   93.8874   -3.5929 C.ar    1  UNL1       -0.0087
     28 C          56.6687   95.3660   -3.8376 C.3     1  UNL1        0.0201
     29 C          57.5797   95.5238   -2.6565 C.3     1  UNL1        0.0044
     30 C          55.7576   95.2082   -5.0188 C.3     1  UNL1        0.0044
     31 C          56.7300   96.8447   -4.0825 C.3     1  UNL1        0.0044
     32 C          59.1869   93.9303    0.6761 C.3     1  UNL1        0.2525
     33 O          60.2868   93.1444    0.0261 O.3     1  UNL1       -0.4714
@<TRIPOS>BOND
     1    32    33    1
     2    33     1    1
     3     1     2   ar
     4     2     3   ar
     5     3     4   ar
     6     4     5   ar
     7     5     6   ar
     8     6    15    1
     9    15    16   ar
    10    16    17    1
    11    16    18   ar
    12    18    19   ar
    13    19    20   ar
    14    20    21    1
    15     4     7    2
    16     7     8    1
    17     8     9    1
    18     9    10    2
    19    10    11    1
    20    11    12    2
    21    11    13   am
    22    13    22    1
    23    22    23   ar
    24    23    24   ar
    25    24    25   ar
    26    25    26   ar
    27    26    27   ar
    28    27    28    1
    29    28    29    1
    30    28    30    1
    31    28    31    1
    32    13    14    1
    33     6     1   ar
    34    20    15   ar
    35    14     9    1
    36    14     3    2
    37    27    22   ar
@<TRIPOS>MOLECULE
*****
 33 37 0 0 0
SMALL
GASTEIGER

@<TRIPOS>ATOM
      1 C          71.9560   75.1743   12.8931 C.ar    1  UNL1        0.1389
      2 C          71.7975   73.6868   13.0025 C.ar    1  UNL1        0.0397
      3 C          71.5237   73.0578   14.3365 C.ar    1  UNL1        0.0353
      4 C          71.4085   73.9164   15.5610 C.ar    1  UNL1        0.0779
      5 C          71.5671   75.4039   15.4516 C.ar    1  UNL1        0.0219
      6 C          71.8408   76.0329   14.1177 C.ar    1  UNL1        0.0394
      7 N          71.1347   73.2874   16.8950 N.2     1  UNL1       -0.2641
      8 C          70.9762   71.7998   17.0044 C.3     1  UNL1        0.1696
      9 C          71.0914   70.9412   15.7798 C.2     1  UNL1        0.0912
     10 N          70.9830   69.4585   15.5796 N.am    1  UNL1       -0.1628
     11 C          71.1897   69.1713   14.1220 C.2     1  UNL1        0.3349
     12 O          71.1647   67.8167   13.4782 O.2     1  UNL1       -0.2497
     13 N          71.4259   70.4763   13.4213 N.am    1  UNL1       -0.2196
     14 C          71.3651   71.5702   14.4458 C.2     1  UNL1        0.0743
     15 C          71.9994   77.5205   14.0083 C.ar    1  UNL1        0.0526
     16 C          72.8231   78.3883   14.9130 C.ar    1  UNL1        0.1007
     17 C          73.6329   77.9209   16.0858 C.3     1  UNL1        0.0557
     18 N          72.6948   79.8056   14.4388 N.ar    1  UNL1       -0.0817
     19 O          71.7918   79.8138   13.2411 O.2     1  UNL1       -0.3581
     20 C          71.3620   78.4015   12.9750 C.ar    1  UNL1        0.1545
     21 C          70.4542   77.9496   11.8697 C.3     1  UNL1        0.0754
     22 C          71.6785   70.6559   11.9537 C.ar    1  UNL1        0.0556
     23 C          73.0599   70.9752   11.4640 C.ar    1  UNL1        0.0150
     24 C          73.3125   71.1549    9.9963 C.ar    1  UNL1        0.0013
     25 C          72.1838   71.0152    9.0184 C.ar    1  UNL1       -0.0002
     26 C          70.8024   70.6959    9.5081 C.ar    1  UNL1       -0.0030
     27 C          70.5498   70.5162   10.9757 C.ar    1  UNL1       -0.0087
     28 C          69.1684   70.1969   11.4653 C.3     1  UNL1        0.0201
     29 C          69.3459   68.7707   11.0360 C.3     1  UNL1        0.0044
     30 C          68.9908   71.6232   11.8946 C.3     1  UNL1        0.0044
     31 C          67.7869   69.8776   11.9549 C.3     1  UNL1        0.0044
     32 C          73.6328   76.1714   11.1773 C.3     1  UNL1        0.2525
     33 O          72.2298   75.8033   11.5592 O.3     1  UNL1       -0.4714
@<TRIPOS>BOND
     1    32    33    1
     2    33     1    1
     3     1     2   ar
     4     2     3   ar
     5     3     4   ar
     6     4     5   ar
     7     5     6   ar
     8     6    15    1
     9    15    16   ar
    10    16    17    1
    11    16    18   ar
    12    18    19   ar
    13    19    20   ar
    14    20    21    1
    15     4     7    2
    16     7     8    1
    17     8     9    1
    18     9    10    2
    19    10    11    1
    20    11    12    2
    21    11    13   am
    22    13    22    1
    23    22    23   ar
    24    23    24   ar
    25    24    25   ar
    26    25    26   ar
    27    26    27   ar
    28    27    28    1
    29    28    29    1
    30    28    30    1
    31    28    31    1
    32    13    14    1
    33     6     1   ar
    34    20    15   ar
    35    14     9    1
    36    14     3    2
    37    27    22   ar
@<TRIPOS>MOLECULE
*****
 33 37 0 0 0
SMALL
GASTEIGER

@<TRIPOS>ATOM
      1 C          65.2065   92.3706   11.3782 C.ar    1  UNL1        0.1389
      2 C          64.5690   91.5219   12.4381 C.ar    1  UNL1        0.0397
      3 C          64.8259   91.8128   13.8870 C.ar    1  UNL1        0.0353
      4 C          65.7203   92.9523   14.2761 C.ar    1  UNL1        0.0779
      5 C          66.3578   93.8010   13.2162 C.ar    1  UNL1        0.0219
      6 C          66.1009   93.5101   11.7673 C.ar    1  UNL1        0.0394
      7 N          65.9772   93.2432   15.7250 N.2     1  UNL1       -0.2641
      8 C          65.3397   92.3946   16.7848 C.3     1  UNL1        0.1696
      9 C          64.4452   91.2550   16.3958 C.2     1  UNL1        0.0912
     10 N          63.6834   90.2531   17.2118 N.am    1  UNL1       -0.1628
     11 C          62.9557   89.3431   16.2673 C.2     1  UNL1        0.3349
     12 O          62.0712   88.1952   16.6546 O.2     1  UNL1       -0.2497
     13 N          63.2677   89.7825   14.8675 N.am    1  UNL1       -0.2196
     14 C          64.1883   90.9641   14.9469 C.2     1  UNL1        0.0743
     15 C          66.7384   94.3588   10.7074 C.ar    1  UNL1        0.0526
     16 C          66.4872   95.8197   10.4783 C.ar    1  UNL1        0.1007
     17 C          65.5542   96.6885   11.2687 C.3     1  UNL1        0.0557
     18 N          67.3326   96.2594    9.3199 N.ar    1  UNL1       -0.0817
     19 O          68.1065   95.0701    8.8330 O.2     1  UNL1       -0.3581
     20 C          67.7392   93.8955    9.6906 C.ar    1  UNL1        0.1545
     21 C          68.2781   92.5023    9.5551 C.3     1  UNL1        0.0754
     22 C          62.7501   89.1511   13.6091 C.ar    1  UNL1        0.0556
     23 C          61.8028   89.9072   12.7255 C.ar    1  UNL1        0.0150
     24 C          61.2851   89.2758   11.4671 C.ar    1  UNL1        0.0013
     25 C          61.7148   87.8884   11.0924 C.ar    1  UNL1       -0.0002
     26 C          62.6621   87.1323   11.9761 C.ar    1  UNL1       -0.0030
     27 C          63.1797   87.7636   13.2345 C.ar    1  UNL1       -0.0087
     28 C          64.1270   87.0075   14.1181 C.3     1  UNL1        0.0201
     29 C          63.3170   85.7607   13.9197 C.3     1  UNL1        0.0044
     30 C          64.9371   88.2543   14.3166 C.3     1  UNL1        0.0044
     31 C          65.0744   86.2514   15.0018 C.3     1  UNL1        0.0044
     32 C          63.6414   91.4807    9.5050 C.3     1  UNL1        0.2525
     33 O          64.9495   92.0797    9.9293 O.3     1  UNL1       -0.4714
@<TRIPOS>BOND
     1    32    33    1
     2    33     1    1
     3     1     2   ar
     4     2     3   ar
     5     3     4   ar
     6     4     5   ar
     7     5     6   ar
     8     6    15    1
     9    15    16   ar
    10    16    17    1
    11    16    18   ar
    12    18    19   ar
    13    19    20   ar
    14    20    21    1
    15     4     7    2
    16     7     8    1
    17     8     9    1
    18     9    10    2
    19    10    11    1
    20    11    12    2
    21    11    13   am
    22    13    22    1
    23    22    23   ar
    24    23    24   ar
    25    24    25   ar
    26    25    26   ar
    27    26    27   ar
    28    27    28    1
    29    28    29    1
    30    28    30    1
    31    28    31    1
    32    13    14    1
    33     6     1   ar
    34    20    15   ar
    35    14     9    1
    36    14     3    2
    37    27    22   ar
@<TRIPOS>MOLECULE
*****
 33 37 0 0 0
SMALL
GASTEIGER

@<TRIPOS>ATOM
      1 C          62.3000   93.3622    0.3368 C.ar    1  UNL1        0.1389
      2 C          62.0793   93.8449   -1.0662 C.ar    1  UNL1        0.0397
      3 C          60.7955   93.5291   -1.7747 C.ar    1  UNL1        0.0353
      4 C          59.7324   92.7305   -1.0804 C.ar    1  UNL1        0.0779
      5 C          59.9531   92.2479    0.3225 C.ar    1  UNL1        0.0219
      6 C          61.2369   92.5637    1.0311 C.ar    1  UNL1        0.0394
      7 N          58.4486   92.4147   -1.7890 N.2     1  UNL1       -0.2641
      8 C          58.2279   92.8974   -3.1919 C.3     1  UNL1        0.1696
      9 C          59.2910   93.6959   -3.8863 C.2     1  UNL1        0.0912
     10 N          59.3568   94.3019   -5.2569 N.am    1  UNL1       -0.1628
     11 C          60.6813   94.9921   -5.3954 C.2     1  UNL1        0.3349
     12 O          61.1676   95.7319   -6.6063 O.2     1  UNL1       -0.2497
     13 N          61.4340   94.8129   -4.1104 N.am    1  UNL1       -0.2196
     14 C          60.5748   94.0118   -3.1778 C.2     1  UNL1        0.0743
     15 C          61.4576   92.0810    2.4341 C.ar    1  UNL1        0.0526
     16 C          60.4586   92.1330    3.5518 C.ar    1  UNL1        0.1007
     17 C          59.0636   92.6770    3.4629 C.3     1  UNL1        0.0557
     18 N          61.0997   91.5457    4.7742 N.ar    1  UNL1       -0.0817
     19 O          62.4949   91.1306    4.4119 O.2     1  UNL1       -0.3581
     20 C          62.7160   91.4614    2.9657 C.ar    1  UNL1        0.1545
     21 C          63.9747   91.2158    2.1876 C.3     1  UNL1        0.0754
     22 C          62.8053   95.3419   -3.8107 C.ar    1  UNL1        0.0556
     23 C          63.0023   96.3265   -2.6965 C.ar    1  UNL1        0.0150
     24 C          64.3736   96.8555   -2.3967 C.ar    1  UNL1        0.0013
     25 C          65.5479   96.3998   -3.2112 C.ar    1  UNL1       -0.0002
     26 C          65.3508   95.4151   -4.3255 C.ar    1  UNL1       -0.0030
     27 C          63.9796   94.8861   -4.6252 C.ar    1  UNL1       -0.0087
     28 C          63.7826   93.9015   -5.7395 C.3     1  UNL1        0.0201
     29 C          63.9704   94.9999   -6.7435 C.3     1  UNL1        0.0044
     30 C          63.5949   92.8029   -4.7355 C.3     1  UNL1        0.0044
     31 C          63.5857   92.9167   -6.8537 C.3     1  UNL1        0.0044
     32 C          64.7793   94.1353    0.2633 C.3     1  UNL1        0.2525
     33 O          63.5838   93.6780    1.0453 O.3     1  UNL1       -0.4714
@<TRIPOS>BOND
     1    32    33    1
     2    33     1    1
     3     1     2   ar
     4     2     3   ar
     5     3     4   ar
     6     4     5   ar
     7     5     6   ar
     8     6    15    1
     9    15    16   ar
    10    16    17    1
    11    16    18   ar
    12    18    19   ar
    13    19    20   ar
    14    20    21    1
    15     4     7    2
    16     7     8    1
    17     8     9    1
    18     9    10    2
    19    10    11    1
    20    11    12    2
    21    11    13   am
    22    13    22    1
    23    22    23   ar
    24    23    24   ar
    25    24    25   ar
    26    25    26   ar
    27    26    27   ar
    28    27    28    1
    29    28    29    1
    30    28    30    1
    31    28    31    1
    32    13    14    1
    33     6     1   ar
    34    20    15   ar
    35    14     9    1
    36    14     3    2
    37    27    22   ar
