@<TRIPOS>MOLECULE
*****
 40 44 0 0 0
SMALL
GASTEIGER

@<TRIPOS>ATOM
      1 C          61.7827   88.3519   10.2331 C.3     1  UNL1        0.0312
      2 C          62.4234   87.4831   11.2745 C.2     1  UNL1        0.0136
      3 C          62.3442   85.9898   11.1576 C.2     1  UNL1        0.0107
      4 C          62.9848   85.1209   12.1990 C.2     1  UNL1        0.0510
      5 C          63.7047   85.7453   13.3574 C.2     1  UNL1        0.0613
      6 C          63.7839   87.2387   13.4743 C.2     1  UNL1        0.2246
      7 N          64.4207   88.1330   14.4964 N.2     1  UNL1       -0.0378
      8 C          64.1735   89.5546   14.0867 C.2     1  UNL1        0.3605
      9 N          63.3840   89.5389   12.8113 N.2     1  UNL1       -0.0547
     10 C          63.1432   88.1075   12.4329 C.3     1  UNL1        0.2976
     11 C          64.6349   90.7773   14.8230 C.3     1  UNL1        0.2246
     12 C          65.6448   91.6931   14.1973 C.2     1  UNL1        0.0436
     13 C          66.1061   92.9159   14.9337 C.2     1  UNL1        0.0288
     14 C          65.5575   93.2228   16.2956 C.2     1  UNL1        0.0896
     15 N          64.5476   92.3070   16.9213 N.am    1  UNL1       -0.1770
     16 C          64.0863   91.0843   16.1849 C.2     1  UNL1        0.2627
     17 O          63.0764   90.1685   16.8105 O.2     1  UNL1       -0.2719
     18 N          66.1934   91.3863   12.8354 N.pl3   1  UNL1       -0.3329
     19 H          65.7659   90.6979   12.2762 H       1  UNL1        0.1466
     20 C          67.3932   92.1282   12.3255 C.3     1  UNL1        0.1211
     21 C          67.4063   92.6590   10.9226 C.3     1  UNL1        0.1522
     22 O          67.8885   91.7924    9.7973 O.3     1  UNL1       -0.3783
     23 H          68.1530   90.9268   10.1462 H       1  UNL1        0.2109
     24 C          66.9372   94.0565   10.6451 C.ar    1  UNL1        0.0067
     25 C          66.3132   94.8696   11.7403 C.ar    1  UNL1       -0.0018
     26 C          65.8441   96.2670   11.4628 C.ar    1  UNL1        0.0006
     27 C          65.9989   96.8514   10.0900 C.ar    1  UNL1        0.0114
     28 C          66.6228   96.0383    8.9948 C.ar    1  UNL1        0.0574
     29 CL         66.7776   96.6227    7.6221 Cl      1  UNL1       -0.0823
     30 C          67.0919   94.6409    9.2723 C.ar    1  UNL1        0.0095
     31 N          62.9056   83.6275   12.0820 N.pl3   1  UNL1       -0.3046
     32 C          62.4401   82.8075   13.2486 C.3     1  UNL1        0.1081
     33 C          62.3609   81.3142   13.1317 C.3     1  UNL1        0.0939
     34 N          62.7472   80.6409   11.8482 N.3     1  UNL1       -0.2677
     35 C          63.2128   81.4609   10.6816 C.3     1  UNL1        0.0939
     36 C          63.2920   82.9542   10.7985 C.3     1  UNL1        0.1081
     37 C          62.6681   79.1476   11.7312 C.3     1  UNL1        0.1043
     38 C          62.8117   78.4917   10.3898 C.3     1  UNL1        0.1544
     39 O          63.1819   77.0409   10.3000 O.3     1  UNL1       -0.3805
     40 H          64.0819   76.9152   10.6393 H       1  UNL1        0.2105
@<TRIPOS>BOND
     1     1     2    1
     2     2     3    2
     3     3     4    1
     4     4    31    1
     5    31    32    1
     6    32    33    1
     7    33    34    1
     8    34    37    1
     9    37    38    1
    10    38    39    1
    11    34    35    1
    12    35    36    1
    13     4     5    2
    14     5     6    1
    15     6     7    2
    16     7     8    1
    17     8    11    1
    18    11    12    1
    19    12    18    1
    20    18    20    1
    21    20    21    1
    22    21    22    1
    23    21    24    1
    24    24    25   ar
    25    25    26   ar
    26    26    27   ar
    27    27    28   ar
    28    28    29    1
    29    28    30   ar
    30    12    13    2
    31    13    14    1
    32    14    15    2
    33    15    16    1
    34    16    17    2
    35     8     9    2
    36     9    10    1
    37    10     2    1
    38    36    31    1
    39    10     6    1
    40    16    11    1
    41    30    24   ar
    42    39    40    1
    43    18    19    1
    44    22    23    1
@<TRIPOS>MOLECULE
*****
 40 44 0 0 0
SMALL
GASTEIGER

@<TRIPOS>ATOM
      1 C          62.9065   87.9866   17.5369 C.3     1  UNL1        0.0312
      2 C          63.4576   88.2159   16.1607 C.2     1  UNL1        0.0136
      3 C          63.9579   89.5750   15.7700 C.2     1  UNL1        0.0107
      4 C          64.5089   89.8043   14.3940 C.2     1  UNL1        0.0510
      5 C          64.5598   88.6745   13.4085 C.2     1  UNL1        0.0613
      6 C          64.0595   87.3155   13.7992 C.2     1  UNL1        0.2246
      7 N          63.9831   86.0198   13.0474 N.2     1  UNL1       -0.0378
      8 C          63.3847   84.9897   13.9588 C.2     1  UNL1        0.3605
      9 N          63.0913   85.6487   15.2740 N.2     1  UNL1       -0.0547
     10 C          63.5084   87.0862   15.1753 C.3     1  UNL1        0.2976
     11 C          63.1252   83.5527   13.6155 C.3     1  UNL1        0.2246
     12 C          62.5775   83.1910   12.2667 C.2     1  UNL1        0.0436
     13 C          62.3180   81.7540   11.9234 C.2     1  UNL1        0.0288
     14 C          62.6062   80.6788   12.9288 C.2     1  UNL1        0.0896
     15 N          63.1539   81.0405   14.2776 N.am    1  UNL1       -0.1770
     16 C          63.4133   82.4775   14.6209 C.2     1  UNL1        0.2627
     17 O          63.9610   82.8392   15.9697 O.2     1  UNL1       -0.2719
     18 N          62.2893   84.2661   11.2613 N.pl3   1  UNL1       -0.3329
     19 H          61.5134   84.8595   11.3838 H       1  UNL1        0.1466
     20 C          63.1833   84.4372   10.0690 C.3     1  UNL1        0.1211
     21 C          62.6896   85.1775    8.8614 C.3     1  UNL1        0.1522
     22 O          63.0227   84.6774    7.4870 O.3     1  UNL1       -0.3783
     23 H          63.5595   83.8725    7.5571 H       1  UNL1        0.2109
     24 C          61.8626   86.4177    9.0283 C.ar    1  UNL1        0.0067
     25 C          60.4726   86.4736    8.4673 C.ar    1  UNL1       -0.0018
     26 C          59.6457   87.7138    8.6341 C.ar    1  UNL1        0.0006
     27 C          60.2087   88.8984    9.3620 C.ar    1  UNL1        0.0114
     28 C          61.5987   88.8426    9.9231 C.ar    1  UNL1        0.0574
     29 CL         62.1617   90.0271   10.6510 Cl      1  UNL1       -0.0823
     30 C          62.4256   87.6023    9.7562 C.ar    1  UNL1        0.0095
     31 N          65.0093   91.1634   14.0033 N.pl3   1  UNL1       -0.3046
     32 C          65.7136   92.0218   15.0118 C.3     1  UNL1        0.1081
     33 C          66.2139   93.3809   14.6211 C.3     1  UNL1        0.0939
     34 N          66.0098   93.8816   13.2220 N.3     1  UNL1       -0.2677
     35 C          65.3055   93.0232   12.2135 C.3     1  UNL1        0.0939
     36 C          64.8052   91.6641   12.6041 C.3     1  UNL1        0.1081
     37 C          66.5101   95.2406   12.8312 C.3     1  UNL1        0.1043
     38 C          66.1293   95.8269   11.5040 C.3     1  UNL1        0.1544
     39 O          65.0132   96.8253   11.4175 O.3     1  UNL1       -0.3805
     40 H          64.1758   96.3952   11.6511 H       1  UNL1        0.2105
@<TRIPOS>BOND
     1     1     2    1
     2     2     3    2
     3     3     4    1
     4     4    31    1
     5    31    32    1
     6    32    33    1
     7    33    34    1
     8    34    37    1
     9    37    38    1
    10    38    39    1
    11    34    35    1
    12    35    36    1
    13     4     5    2
    14     5     6    1
    15     6     7    2
    16     7     8    1
    17     8    11    1
    18    11    12    1
    19    12    18    1
    20    18    20    1
    21    20    21    1
    22    21    22    1
    23    21    24    1
    24    24    25   ar
    25    25    26   ar
    26    26    27   ar
    27    27    28   ar
    28    28    29    1
    29    28    30   ar
    30    12    13    2
    31    13    14    1
    32    14    15    2
    33    15    16    1
    34    16    17    2
    35     8     9    2
    36     9    10    1
    37    10     2    1
    38    36    31    1
    39    10     6    1
    40    16    11    1
    41    30    24   ar
    42    39    40    1
    43    18    19    1
    44    22    23    1
@<TRIPOS>MOLECULE
*****
 40 44 0 0 0
SMALL
GASTEIGER

@<TRIPOS>ATOM
      1 C          63.0364   88.3384   17.7975 C.3     1  UNL1        0.0312
      2 C          63.3595   87.7593   16.4520 C.2     1  UNL1        0.0136
      3 C          63.1294   86.3007   16.1884 C.2     1  UNL1        0.0107
      4 C          63.4524   85.7216   14.8430 C.2     1  UNL1        0.0510
      5 C          64.0056   86.6012   13.7610 C.2     1  UNL1        0.0613
      6 C          64.2356   88.0598   14.0246 C.2     1  UNL1        0.2246
      7 N          64.7655   89.1647   13.1595 N.2     1  UNL1       -0.0378
      8 C          64.7699   90.4266   13.9703 C.2     1  UNL1        0.3605
      9 N          64.2428   90.1017   15.3366 N.2     1  UNL1       -0.0547
     10 C          63.9126   88.6388   15.3701 C.3     1  UNL1        0.2976
     11 C          65.2221   91.7766   13.4979 C.3     1  UNL1        0.2246
     12 C          65.0029   92.1840   12.0710 C.2     1  UNL1        0.0436
     13 C          65.4551   93.5340   11.5987 C.2     1  UNL1        0.0288
     14 C          66.1264   94.4765   12.5531 C.2     1  UNL1        0.0896
     15 N          66.3456   94.0691   13.9800 N.am    1  UNL1       -0.1770
     16 C          65.8934   92.7191   14.4523 C.2     1  UNL1        0.2627
     17 O          66.1126   92.3116   15.8792 O.2     1  UNL1       -0.2719
     18 N          64.3315   91.2416   11.1166 N.pl3   1  UNL1       -0.3329
     19 H          64.8678   90.5912   10.6080 H       1  UNL1        0.1466
     20 C          62.8431   91.2900   10.9368 C.3     1  UNL1        0.1211
     21 C          61.9968   90.1315   11.3742 C.3     1  UNL1        0.1522
     22 O          61.5997   89.9942   12.8142 O.3     1  UNL1       -0.3783
     23 H          61.9701   90.7320   13.3235 H       1  UNL1        0.2109
     24 C          61.5475   89.1102   10.3717 C.ar    1  UNL1        0.0067
     25 C          60.3184   89.3575    9.5483 C.ar    1  UNL1       -0.0018
     26 C          59.8692   88.3362    8.5457 C.ar    1  UNL1        0.0006
     27 C          60.6491   87.0675    8.3666 C.ar    1  UNL1        0.0114
     28 C          61.8782   86.8201    9.1900 C.ar    1  UNL1        0.0574
     29 CL         62.6580   85.5514    9.0109 Cl      1  UNL1       -0.0823
     30 C          62.3274   87.8414   10.1926 C.ar    1  UNL1        0.0095
     31 N          63.2224   84.2629   14.5794 N.pl3   1  UNL1       -0.3046
     32 C          61.8750   83.6572   14.8394 C.3     1  UNL1        0.1081
     33 C          61.6449   82.1986   14.5758 C.3     1  UNL1        0.0939
     34 N          62.7622   81.3457   14.0522 N.3     1  UNL1       -0.2677
     35 C          64.1096   81.9514   13.7923 C.3     1  UNL1        0.0939
     36 C          64.3397   83.4100   14.0558 C.3     1  UNL1        0.1081
     37 C          62.5322   79.8871   13.7886 C.3     1  UNL1        0.1043
     38 C          62.5730   79.3633   12.3836 C.3     1  UNL1        0.1544
     39 O          62.8165   80.3025   11.2397 O.3     1  UNL1       -0.3805
     40 H          62.0705   80.9176   11.1620 H       1  UNL1        0.2105
@<TRIPOS>BOND
     1     1     2    1
     2     2     3    2
     3     3     4    1
     4     4    31    1
     5    31    32    1
     6    32    33    1
     7    33    34    1
     8    34    37    1
     9    37    38    1
    10    38    39    1
    11    34    35    1
    12    35    36    1
    13     4     5    2
    14     5     6    1
    15     6     7    2
    16     7     8    1
    17     8    11    1
    18    11    12    1
    19    12    18    1
    20    18    20    1
    21    20    21    1
    22    21    22    1
    23    21    24    1
    24    24    25   ar
    25    25    26   ar
    26    26    27   ar
    27    27    28   ar
    28    28    29    1
    29    28    30   ar
    30    12    13    2
    31    13    14    1
    32    14    15    2
    33    15    16    1
    34    16    17    2
    35     8     9    2
    36     9    10    1
    37    10     2    1
    38    36    31    1
    39    10     6    1
    40    16    11    1
    41    30    24   ar
    42    39    40    1
    43    18    19    1
    44    22    23    1
@<TRIPOS>MOLECULE
*****
 40 44 0 0 0
SMALL
GASTEIGER

@<TRIPOS>ATOM
      1 C          59.4299   88.9732   12.2357 C.3     1  UNL1        0.0312
      2 C          59.9927   88.5888   10.8995 C.2     1  UNL1        0.0136
      3 C          59.6189   89.3706    9.6752 C.2     1  UNL1        0.0107
      4 C          60.1816   88.9863    8.3390 C.2     1  UNL1        0.0510
      5 C          61.1183   87.8200    8.2270 C.2     1  UNL1        0.0613
      6 C          61.4922   87.0382    9.4513 C.2     1  UNL1        0.2246
      7 N          62.3857   85.8497    9.6491 N.2     1  UNL1       -0.0378
      8 C          62.3751   85.4995   11.1077 C.2     1  UNL1        0.3605
      9 N          61.4750   86.4716   11.8112 N.2     1  UNL1       -0.0547
     10 C          60.9293   87.4225   10.7876 C.3     1  UNL1        0.2976
     11 C          63.1317   84.3748   11.7499 C.3     1  UNL1        0.2246
     12 C          63.5511   84.4769   13.1864 C.2     1  UNL1        0.0436
     13 C          64.3077   83.3521   13.8286 C.2     1  UNL1        0.0288
     14 C          64.6449   82.1252   13.0343 C.2     1  UNL1        0.0896
     15 N          64.2256   82.0230   11.5977 N.am    1  UNL1       -0.1770
     16 C          63.4689   83.1479   10.9556 C.2     1  UNL1        0.2627
     17 O          63.0495   83.0457    9.5190 O.2     1  UNL1       -0.2719
     18 N          63.2139   85.7038   13.9808 N.pl3   1  UNL1       -0.3329
     19 H          62.2811   85.8804   14.2416 H       1  UNL1        0.1466
     20 C          64.2978   86.6616   14.3779 C.3     1  UNL1        0.1211
     21 C          63.9419   88.0156   14.9163 C.3     1  UNL1        0.1522
     22 O          63.3945   88.1499   16.3064 O.3     1  UNL1       -0.3783
     23 H          63.3344   87.2728   16.7163 H       1  UNL1        0.2109
     24 C          64.1334   89.2354   14.0646 C.ar    1  UNL1        0.0067
     25 C          65.0610   90.3254   14.5132 C.ar    1  UNL1       -0.0018
     26 C          65.2524   91.5452   13.6615 C.ar    1  UNL1        0.0006
     27 C          64.5163   91.6750   12.3610 C.ar    1  UNL1        0.0114
     28 C          63.5887   90.5850   11.9124 C.ar    1  UNL1        0.0574
     29 CL         62.8525   90.7148   10.6119 Cl      1  UNL1       -0.0823
     30 C          63.3972   89.3652   12.7641 C.ar    1  UNL1        0.0095
     31 N          59.8077   89.7682    7.1147 N.pl3   1  UNL1       -0.3046
     32 C          60.8772   90.3904    6.2666 C.3     1  UNL1        0.1081
     33 C          60.5033   91.1723    5.0423 C.3     1  UNL1        0.0939
     34 N          59.0601   91.3320    4.6661 N.3     1  UNL1       -0.2677
     35 C          57.9907   90.7098    5.5142 C.3     1  UNL1        0.0939
     36 C          58.3645   89.9279    6.7385 C.3     1  UNL1        0.1081
     37 C          58.6862   92.1139    3.4419 C.3     1  UNL1        0.1043
     38 C          59.7533   92.7654    2.6131 C.3     1  UNL1        0.1544
     39 O          60.1136   94.2022    2.8490 O.3     1  UNL1       -0.3805
     40 H          59.3601   94.7670    2.6164 H       1  UNL1        0.2105
@<TRIPOS>BOND
     1     1     2    1
     2     2     3    2
     3     3     4    1
     4     4    31    1
     5    31    32    1
     6    32    33    1
     7    33    34    1
     8    34    37    1
     9    37    38    1
    10    38    39    1
    11    34    35    1
    12    35    36    1
    13     4     5    2
    14     5     6    1
    15     6     7    2
    16     7     8    1
    17     8    11    1
    18    11    12    1
    19    12    18    1
    20    18    20    1
    21    20    21    1
    22    21    22    1
    23    21    24    1
    24    24    25   ar
    25    25    26   ar
    26    26    27   ar
    27    27    28   ar
    28    28    29    1
    29    28    30   ar
    30    12    13    2
    31    13    14    1
    32    14    15    2
    33    15    16    1
    34    16    17    2
    35     8     9    2
    36     9    10    1
    37    10     2    1
    38    36    31    1
    39    10     6    1
    40    16    11    1
    41    30    24   ar
    42    39    40    1
    43    18    19    1
    44    22    23    1
@<TRIPOS>MOLECULE
*****
 40 44 0 0 0
SMALL
GASTEIGER

@<TRIPOS>ATOM
      1 C          59.7250   89.0460   12.2428 C.3     1  UNL1        0.0312
      2 C          60.1501   88.5990   10.8755 C.2     1  UNL1        0.0136
      3 C          59.7549   89.3975    9.6688 C.2     1  UNL1        0.0107
      4 C          60.1800   88.9505    8.3016 C.2     1  UNL1        0.0510
      5 C          61.0004   87.7049    8.1410 C.2     1  UNL1        0.0613
      6 C          61.3956   86.9065    9.3477 C.2     1  UNL1        0.2246
      7 N          62.1944   85.6460    9.4996 N.2     1  UNL1       -0.0378
      8 C          62.2630   85.3141   10.9608 C.2     1  UNL1        0.3605
      9 N          61.5066   86.3693   11.7120 N.2     1  UNL1       -0.0547
     10 C          60.9705   87.3535   10.7150 C.3     1  UNL1        0.2976
     11 C          62.9648   84.1340   11.5649 C.3     1  UNL1        0.2246
     12 C          62.8735   83.8818   13.0407 C.2     1  UNL1        0.0436
     13 C          63.5754   82.7016   13.6447 C.2     1  UNL1        0.0288
     14 C          64.3685   81.7737   12.7729 C.2     1  UNL1        0.0896
     15 N          64.4598   82.0260   11.2971 N.am    1  UNL1       -0.1770
     16 C          63.7579   83.2061   10.6931 C.2     1  UNL1        0.2627
     17 O          63.8492   83.4583    9.2173 O.2     1  UNL1       -0.2719
     18 N          62.0805   84.8096   13.9125 N.pl3   1  UNL1       -0.3329
     19 H          61.2365   85.1943   13.5823 H       1  UNL1        0.1466
     20 C          62.5731   85.1513   15.2875 C.3     1  UNL1        0.1211
     21 C          63.8373   85.9408   15.4565 C.3     1  UNL1        0.1522
     22 O          65.1613   85.2370   15.4974 O.3     1  UNL1       -0.3783
     23 H          65.0227   84.2817   15.4016 H       1  UNL1        0.2109
     24 C          63.7774   87.4341   15.5846 C.ar    1  UNL1        0.0067
     25 C          63.1316   88.0586   16.7857 C.ar    1  UNL1       -0.0018
     26 C          63.0717   89.5519   16.9138 C.ar    1  UNL1        0.0006
     27 C          63.6578   90.4208   15.8407 C.ar    1  UNL1        0.0114
     28 C          64.3037   89.7963   14.6396 C.ar    1  UNL1        0.0574
     29 CL         64.8897   90.6652   13.5665 Cl      1  UNL1       -0.0823
     30 C          64.3635   88.3030   14.5115 C.ar    1  UNL1        0.0095
     31 N          59.7848   89.7490    7.0948 N.pl3   1  UNL1       -0.3046
     32 C          60.8401   90.3543    6.2174 C.3     1  UNL1        0.1081
     33 C          60.4449   91.1528    5.0106 C.3     1  UNL1        0.0939
     34 N          58.9944   91.3459    4.6813 N.3     1  UNL1       -0.2677
     35 C          57.9390   90.7406    5.5586 C.3     1  UNL1        0.0939
     36 C          58.3342   89.9421    6.7654 C.3     1  UNL1        0.1081
     37 C          58.5991   92.1444    3.4746 C.3     1  UNL1        0.1043
     38 C          59.6540   92.7648    2.6072 C.3     1  UNL1        0.1544
     39 O          60.0201   94.2081    2.7877 O.3     1  UNL1       -0.3805
     40 H          59.2638   94.7660    2.5475 H       1  UNL1        0.2105
@<TRIPOS>BOND
     1     1     2    1
     2     2     3    2
     3     3     4    1
     4     4    31    1
     5    31    32    1
     6    32    33    1
     7    33    34    1
     8    34    37    1
     9    37    38    1
    10    38    39    1
    11    34    35    1
    12    35    36    1
    13     4     5    2
    14     5     6    1
    15     6     7    2
    16     7     8    1
    17     8    11    1
    18    11    12    1
    19    12    18    1
    20    18    20    1
    21    20    21    1
    22    21    22    1
    23    21    24    1
    24    24    25   ar
    25    25    26   ar
    26    26    27   ar
    27    27    28   ar
    28    28    29    1
    29    28    30   ar
    30    12    13    2
    31    13    14    1
    32    14    15    2
    33    15    16    1
    34    16    17    2
    35     8     9    2
    36     9    10    1
    37    10     2    1
    38    36    31    1
    39    10     6    1
    40    16    11    1
    41    30    24   ar
    42    39    40    1
    43    18    19    1
    44    22    23    1
@<TRIPOS>MOLECULE
*****
 40 44 0 0 0
SMALL
GASTEIGER

@<TRIPOS>ATOM
      1 C          59.4697   89.0157   12.2262 C.3     1  UNL1        0.0312
      2 C          60.0195   88.6183   10.8883 C.2     1  UNL1        0.0136
      3 C          59.6438   89.3961    9.6620 C.2     1  UNL1        0.0107
      4 C          60.1935   88.9988    8.3242 C.2     1  UNL1        0.0510
      5 C          61.1191   87.8236    8.2126 C.2     1  UNL1        0.0613
      6 C          61.4948   87.0458    9.4389 C.2     1  UNL1        0.2246
      7 N          62.3792   85.8507    9.6375 N.2     1  UNL1       -0.0378
      8 C          62.3760   85.5094   11.0982 C.2     1  UNL1        0.3605
      9 N          61.4896   86.4936   11.8023 N.2     1  UNL1       -0.0547
     10 C          60.9450   87.4432   10.7767 C.3     1  UNL1        0.2976
     11 C          63.1272   84.3818   11.7418 C.3     1  UNL1        0.2246
     12 C          63.5408   84.4807   13.1802 C.2     1  UNL1        0.0436
     13 C          64.2921   83.3531   13.8238 C.2     1  UNL1        0.0288
     14 C          64.6298   82.1266   13.0289 C.2     1  UNL1        0.0896
     15 N          64.2162   82.0277   11.5905 N.am    1  UNL1       -0.1770
     16 C          63.4649   83.1554   10.9470 C.2     1  UNL1        0.2627
     17 O          63.0513   83.0565    9.5085 O.2     1  UNL1       -0.2719
     18 N          63.2032   85.7071   13.9751 N.pl3   1  UNL1       -0.3329
     19 H          62.2673   85.8957   14.2154 H       1  UNL1        0.1466
     20 C          64.2915   86.6462   14.4039 C.3     1  UNL1        0.1211
     21 C          63.9440   88.0102   14.9221 C.3     1  UNL1        0.1522
     22 O          63.4340   88.1727   16.3234 O.3     1  UNL1       -0.3783
     23 H          63.3891   87.3046   16.7538 H       1  UNL1        0.2109
     24 C          64.1065   89.2118   14.0391 C.ar    1  UNL1        0.0067
     25 C          63.3256   89.3158   12.7627 C.ar    1  UNL1       -0.0018
     26 C          63.4881   90.5174   11.8797 C.ar    1  UNL1        0.0006
     27 C          64.4317   91.6151   12.2731 C.ar    1  UNL1        0.0114
     28 C          65.2126   91.5112   13.5495 C.ar    1  UNL1        0.0574
     29 CL         66.1561   92.6089   13.9429 Cl      1  UNL1       -0.0823
     30 C          65.0500   90.3096   14.4325 C.ar    1  UNL1        0.0095
     31 N          59.8178   89.7767    7.0978 N.pl3   1  UNL1       -0.3046
     32 C          58.3729   89.9575    6.7379 C.3     1  UNL1        0.1081
     33 C          57.9971   90.7354    5.5116 C.3     1  UNL1        0.0939
     34 N          59.0663   91.3323    4.6453 N.3     1  UNL1       -0.2677
     35 C          60.5112   91.1514    5.0052 C.3     1  UNL1        0.0939
     36 C          60.8869   90.3736    6.2315 C.3     1  UNL1        0.1081
     37 C          58.6906   92.1101    3.4190 C.3     1  UNL1        0.1043
     38 C          59.7520   92.7992    2.6135 C.3     1  UNL1        0.1544
     39 O          60.0919   94.2335    2.8916 O.3     1  UNL1       -0.3805
     40 H          59.3317   94.7944    2.6719 H       1  UNL1        0.2105
@<TRIPOS>BOND
     1     1     2    1
     2     2     3    2
     3     3     4    1
     4     4    31    1
     5    31    32    1
     6    32    33    1
     7    33    34    1
     8    34    37    1
     9    37    38    1
    10    38    39    1
    11    34    35    1
    12    35    36    1
    13     4     5    2
    14     5     6    1
    15     6     7    2
    16     7     8    1
    17     8    11    1
    18    11    12    1
    19    12    18    1
    20    18    20    1
    21    20    21    1
    22    21    22    1
    23    21    24    1
    24    24    25   ar
    25    25    26   ar
    26    26    27   ar
    27    27    28   ar
    28    28    29    1
    29    28    30   ar
    30    12    13    2
    31    13    14    1
    32    14    15    2
    33    15    16    1
    34    16    17    2
    35     8     9    2
    36     9    10    1
    37    10     2    1
    38    36    31    1
    39    10     6    1
    40    16    11    1
    41    30    24   ar
    42    39    40    1
    43    18    19    1
    44    22    23    1
@<TRIPOS>MOLECULE
*****
 40 44 0 0 0
SMALL
GASTEIGER

@<TRIPOS>ATOM
      1 C          62.6986   84.2517    7.4319 C.3     1  UNL1        0.0312
      2 C          62.0648   85.4231    8.1219 C.2     1  UNL1        0.0136
      3 C          61.3274   86.4557    7.3220 C.2     1  UNL1        0.0107
      4 C          60.6936   87.6271    8.0120 C.2     1  UNL1        0.0510
      5 C          60.7972   87.7659    9.5020 C.2     1  UNL1        0.0613
      6 C          61.5346   86.7333   10.3019 C.2     1  UNL1        0.2246
      7 N          61.8006   86.6045   11.7725 N.2     1  UNL1       -0.0378
      8 C          62.5987   85.3535   11.9914 C.2     1  UNL1        0.3605
      9 N          62.8261   84.7091   10.6560 N.2     1  UNL1       -0.0547
     10 C          62.1684   85.5619    9.6119 C.3     1  UNL1        0.2976
     11 C          63.0843   84.8375   13.3134 C.3     1  UNL1        0.2246
     12 C          63.7376   85.7711   14.2889 C.2     1  UNL1        0.0436
     13 C          64.2231   85.2549   15.6110 C.2     1  UNL1        0.0288
     14 C          64.0554   83.8052   15.9576 C.2     1  UNL1        0.0896
     15 N          63.4022   82.8716   14.9822 N.am    1  UNL1       -0.1770
     16 C          62.9166   83.3877   13.6601 C.2     1  UNL1        0.2627
     17 O          62.2633   82.4541   12.6846 O.2     1  UNL1       -0.2719
     18 N          63.9053   87.2208   13.9423 N.pl3   1  UNL1       -0.3329
     19 H          63.7392   87.5294   13.0223 H       1  UNL1        0.1466
     20 C          64.3262   88.2004   14.9974 C.3     1  UNL1        0.1211
     21 C          63.8689   89.6270   14.9216 C.3     1  UNL1        0.1522
     22 O          63.1297   90.2399   16.0740 O.3     1  UNL1       -0.3783
     23 H          63.0322   89.5834   16.7814 H       1  UNL1        0.2109
     24 C          64.1508   90.4406   13.6934 C.ar    1  UNL1        0.0067
     25 C          65.2773   91.4310   13.6920 C.ar    1  UNL1       -0.0018
     26 C          65.5591   92.2447   12.4638 C.ar    1  UNL1        0.0006
     27 C          64.7145   92.0680   11.2369 C.ar    1  UNL1        0.0114
     28 C          63.5879   91.0776   11.2383 C.ar    1  UNL1        0.0574
     29 CL         62.7433   90.9008   10.0114 Cl      1  UNL1       -0.0823
     30 C          63.3061   90.2639   12.4665 C.ar    1  UNL1        0.0095
     31 N          59.9562   88.6597    7.2120 N.pl3   1  UNL1       -0.3046
     32 C          58.4563   88.6651    7.1952 C.3     1  UNL1        0.1081
     33 C          57.7188   89.6977    6.3953 C.3     1  UNL1        0.0939
     34 N          58.4813   90.7249    5.6121 N.3     1  UNL1       -0.2677
     35 C          59.9812   90.7196    5.6288 C.3     1  UNL1        0.0939
     36 C          60.7187   89.6870    6.4287 C.3     1  UNL1        0.1081
     37 C          57.7440   91.7576    4.8121 C.3     1  UNL1        0.1043
     38 C          56.2458   91.8144    4.8601 C.3     1  UNL1        0.1544
     39 O          55.4634   90.6136    5.3027 O.3     1  UNL1       -0.3805
     40 H          55.5781   89.8976    4.6586 H       1  UNL1        0.2105
@<TRIPOS>BOND
     1     1     2    1
     2     2     3    2
     3     3     4    1
     4     4    31    1
     5    31    32    1
     6    32    33    1
     7    33    34    1
     8    34    37    1
     9    37    38    1
    10    38    39    1
    11    34    35    1
    12    35    36    1
    13     4     5    2
    14     5     6    1
    15     6     7    2
    16     7     8    1
    17     8    11    1
    18    11    12    1
    19    12    18    1
    20    18    20    1
    21    20    21    1
    22    21    22    1
    23    21    24    1
    24    24    25   ar
    25    25    26   ar
    26    26    27   ar
    27    27    28   ar
    28    28    29    1
    29    28    30   ar
    30    12    13    2
    31    13    14    1
    32    14    15    2
    33    15    16    1
    34    16    17    2
    35     8     9    2
    36     9    10    1
    37    10     2    1
    38    36    31    1
    39    10     6    1
    40    16    11    1
    41    30    24   ar
    42    39    40    1
    43    18    19    1
    44    22    23    1
@<TRIPOS>MOLECULE
*****
 40 44 0 0 0
SMALL
GASTEIGER

@<TRIPOS>ATOM
      1 C          58.7738   89.3146   12.2047 C.3     1  UNL1        0.0312
      2 C          60.0605   88.8163   11.6161 C.2     1  UNL1        0.0136
      3 C          60.0366   87.8903   10.4364 C.2     1  UNL1        0.0107
      4 C          61.3231   87.3920    9.8479 C.2     1  UNL1        0.0510
      5 C          62.6337   87.8198   10.4391 C.2     1  UNL1        0.0613
      6 C          62.6576   88.7458   11.6189 C.2     1  UNL1        0.2246
      7 N          63.7879   89.3352   12.4094 N.2     1  UNL1       -0.0378
      8 C          63.1998   90.1978   13.4865 C.2     1  UNL1        0.3605
      9 N          61.7061   90.1415   13.3617 N.2     1  UNL1       -0.0547
     10 C          61.3710   89.2441   12.2074 C.3     1  UNL1        0.2976
     11 C          63.9703   90.9794   14.5090 C.3     1  UNL1        0.2246
     12 C          63.7457   90.7280   15.9707 C.2     1  UNL1        0.0436
     13 C          64.5162   91.5097   16.9931 C.2     1  UNL1        0.0288
     14 C          65.5111   92.5428   16.5540 C.2     1  UNL1        0.0896
     15 N          65.7357   92.7942   15.0924 N.am    1  UNL1       -0.1770
     16 C          64.9652   92.0125   14.0699 C.2     1  UNL1        0.2627
     17 O          65.1897   92.2639   12.6083 O.2     1  UNL1       -0.2719
     18 N          62.7508   89.6950   16.4099 N.pl3   1  UNL1       -0.3329
     19 H          61.7892   89.8421   16.2586 H       1  UNL1        0.1466
     20 C          63.2210   88.4379   17.0796 C.3     1  UNL1        0.1211
     21 C          62.5957   87.1210   16.7264 C.3     1  UNL1        0.1522
     22 O          61.2068   86.8008   17.1938 O.3     1  UNL1       -0.3783
     23 H          60.8587   87.5463   17.7078 H       1  UNL1        0.2109
     24 C          63.3592   86.1242   15.9058 C.ar    1  UNL1        0.0067
     25 C          64.6894   86.4961   15.3207 C.ar    1  UNL1       -0.0018
     26 C          65.4530   85.4994   14.5001 C.ar    1  UNL1        0.0006
     27 C          64.8864   84.1306   14.2645 C.ar    1  UNL1        0.0114
     28 C          63.5563   83.7587   14.8496 C.ar    1  UNL1        0.0574
     29 CL         62.9897   82.3899   14.6141 Cl      1  UNL1       -0.0823
     30 C          62.7927   84.7554   15.6702 C.ar    1  UNL1        0.0095
     31 N          61.2992   86.4659    8.6681 N.pl3   1  UNL1       -0.3046
     32 C          62.5409   85.7233    8.2723 C.3     1  UNL1        0.1081
     33 C          62.5171   84.7972    7.0926 C.3     1  UNL1        0.0939
     34 N          61.2515   84.6138    6.3086 N.3     1  UNL1       -0.2677
     35 C          60.0097   85.3564    6.7044 C.3     1  UNL1        0.0939
     36 C          60.0336   86.2825    7.8841 C.3     1  UNL1        0.1081
     37 C          61.2275   83.6877    5.1289 C.3     1  UNL1        0.1043
     38 C          61.8775   84.0973    3.8405 C.3     1  UNL1        0.1544
     39 O          61.0977   84.0539    2.5599 O.3     1  UNL1       -0.3805
     40 H          60.8788   83.1336    2.3457 H       1  UNL1        0.2105
@<TRIPOS>BOND
     1     1     2    1
     2     2     3    2
     3     3     4    1
     4     4    31    1
     5    31    32    1
     6    32    33    1
     7    33    34    1
     8    34    37    1
     9    37    38    1
    10    38    39    1
    11    34    35    1
    12    35    36    1
    13     4     5    2
    14     5     6    1
    15     6     7    2
    16     7     8    1
    17     8    11    1
    18    11    12    1
    19    12    18    1
    20    18    20    1
    21    20    21    1
    22    21    22    1
    23    21    24    1
    24    24    25   ar
    25    25    26   ar
    26    26    27   ar
    27    27    28   ar
    28    28    29    1
    29    28    30   ar
    30    12    13    2
    31    13    14    1
    32    14    15    2
    33    15    16    1
    34    16    17    2
    35     8     9    2
    36     9    10    1
    37    10     2    1
    38    36    31    1
    39    10     6    1
    40    16    11    1
    41    30    24   ar
    42    39    40    1
    43    18    19    1
    44    22    23    1
@<TRIPOS>MOLECULE
*****
 40 44 0 0 0
SMALL
GASTEIGER

@<TRIPOS>ATOM
      1 C          58.7284   86.6579    8.4835 C.3     1  UNL1        0.0312
      2 C          59.5581   87.8847    8.2455 C.2     1  UNL1        0.0136
      3 C          59.3236   88.7233    7.0241 C.2     1  UNL1        0.0107
      4 C          60.1532   89.9500    6.7861 C.2     1  UNL1        0.0510
      5 C          61.2174   90.3383    7.7695 C.2     1  UNL1        0.0613
      6 C          61.4518   89.4997    8.9908 C.2     1  UNL1        0.2246
      7 N          62.4212   89.6315   10.1279 N.2     1  UNL1       -0.0378
      8 C          62.1906   88.4862   11.0687 C.2     1  UNL1        0.3605
      9 N          61.0788   87.6465   10.5130 N.2     1  UNL1       -0.0547
     10 C          60.6221   88.2729    9.2289 C.3     1  UNL1        0.2976
     11 C          62.9403   88.2262   12.3416 C.3     1  UNL1        0.2246
     12 C          63.4191   89.3754   13.1782 C.2     1  UNL1        0.0436
     13 C          64.1688   89.1153   14.4512 C.2     1  UNL1        0.0288
     14 C          64.4397   87.7060   14.8875 C.2     1  UNL1        0.0896
     15 N          63.9610   86.5567   14.0508 N.am    1  UNL1       -0.1770
     16 C          63.2113   86.8169   12.7779 C.2     1  UNL1        0.2627
     17 O          62.7326   85.6676   11.9413 O.2     1  UNL1       -0.2719
     18 N          63.1481   90.7848   12.7420 N.pl3   1  UNL1       -0.3329
     19 H          62.3623   91.2652   13.0896 H       1  UNL1        0.1466
     20 C          64.0745   91.4622   11.7762 C.3     1  UNL1        0.1211
     21 C          65.1692   92.3522   12.2856 C.3     1  UNL1        0.1522
     22 O          65.3741   92.5190   13.7622 O.3     1  UNL1       -0.3783
     23 H          64.7198   91.9871   14.2415 H       1  UNL1        0.2109
     24 C          66.0589   93.0754   11.3185 C.ar    1  UNL1        0.0067
     25 C          65.9688   94.5670   11.1876 C.ar    1  UNL1       -0.0018
     26 C          66.8585   95.2902   10.2205 C.ar    1  UNL1        0.0006
     27 C          67.8385   94.5218    9.3843 C.ar    1  UNL1        0.0114
     28 C          67.9287   93.0303    9.5152 C.ar    1  UNL1        0.0574
     29 CL         68.9086   92.2620    8.6789 Cl      1  UNL1       -0.0823
     30 C          67.0389   92.3071   10.4823 C.ar    1  UNL1        0.0095
     31 N          59.9188   90.7886    5.5646 N.pl3   1  UNL1       -0.3046
     32 C          58.5273   91.2191    5.2061 C.3     1  UNL1        0.1081
     33 C          58.2929   92.0576    3.9848 C.3     1  UNL1        0.0939
     34 N          59.4499   92.4658    3.1218 N.3     1  UNL1       -0.2677
     35 C          60.8414   92.0354    3.4803 C.3     1  UNL1        0.0939
     36 C          61.0759   91.1968    4.7017 C.3     1  UNL1        0.1081
     37 C          59.2156   93.3044    1.9005 C.3     1  UNL1        0.1043
     38 C          59.8142   92.8990    0.5862 C.3     1  UNL1        0.1544
     39 O          59.2882   91.6955   -0.1383 O.3     1  UNL1       -0.3805
     40 H          59.4784   90.8976    0.3796 H       1  UNL1        0.2105
@<TRIPOS>BOND
     1     1     2    1
     2     2     3    2
     3     3     4    1
     4     4    31    1
     5    31    32    1
     6    32    33    1
     7    33    34    1
     8    34    37    1
     9    37    38    1
    10    38    39    1
    11    34    35    1
    12    35    36    1
    13     4     5    2
    14     5     6    1
    15     6     7    2
    16     7     8    1
    17     8    11    1
    18    11    12    1
    19    12    18    1
    20    18    20    1
    21    20    21    1
    22    21    22    1
    23    21    24    1
    24    24    25   ar
    25    25    26   ar
    26    26    27   ar
    27    27    28   ar
    28    28    29    1
    29    28    30   ar
    30    12    13    2
    31    13    14    1
    32    14    15    2
    33    15    16    1
    34    16    17    2
    35     8     9    2
    36     9    10    1
    37    10     2    1
    38    36    31    1
    39    10     6    1
    40    16    11    1
    41    30    24   ar
    42    39    40    1
    43    18    19    1
    44    22    23    1
