@<TRIPOS>MOLECULE
*****
 27 30 0 0 0
SMALL
GASTEIGER

@<TRIPOS>ATOM
      1 C          60.9133   89.4399    9.3670 C.3     1  UNL1        0.2159
      2 N          61.8319   89.5282   10.5496 N.am    1  UNL1       -0.1449
      3 C          61.7378   88.5131   11.6498 C.2     1  UNL1        0.3728
      4 N          60.7251   87.4096   11.5676 N.2     1  UNL1       -0.1329
      5 N          62.6565   88.6014   12.8324 N.pl3   1  UNL1       -0.2247
      6 C          63.6692   89.7049   12.9146 C.3     1  UNL1        0.1559
      7 C          64.7006   90.0455   13.9491 C.3     1  UNL1        0.1327
      8 N          65.4321   91.2712   13.4881 N.pl3   1  UNL1       -0.2740
      9 C          64.8528   91.6881   12.1688 C.3     1  UNL1        0.1079
     10 C          63.7633   90.7200   11.8143 C.3     1  UNL1        0.1498
     11 C          62.8447   90.6316   10.6318 C.2     1  UNL1        0.2919
     12 O          62.9388   91.6468    9.5315 O.2     1  UNL1       -0.2563
     13 H          60.1221   87.3516   10.7915 H       1  UNL1        0.3058
     14 H          62.5947   87.9351   13.5546 H       1  UNL1        0.2454
     15 C          66.5472   91.9593   14.2183 C.ar    1  UNL1        0.2204
     16 N          67.9322   91.9609   13.6425 N.ar    1  UNL1       -0.2097
     17 C          69.0473   92.6490   14.3727 C.ar    1  UNL1        0.1330
     18 C          68.7773   93.3356   15.6787 C.ar    1  UNL1        0.1784
     19 F          69.8923   94.0237   16.4089 F       1  UNL1       -0.2009
     20 C          67.3922   93.3340   16.2546 C.ar    1  UNL1        0.1330
     21 N          66.2772   92.6459   15.5243 N.ar    1  UNL1       -0.2097
     22 C          63.6921   88.7672   14.0852 C.ar    1  UNL1        0.0402
     23 C          64.0226   87.3049   14.0372 C.ar    1  UNL1        0.0124
     24 C          63.9233   86.7612   15.4317 C.ar    1  UNL1        0.0413
     25 BR         64.1721   85.3406   15.8439 Br      1  UNL1       -0.0485
     26 C          63.5315   87.8875   16.3415 C.ar    1  UNL1        0.0419
     27 S          63.3886   89.1273   15.5093 S.2     1  UNL1       -0.0872
@<TRIPOS>BOND
     1     1     2    1
     2     2     3    1
     3     3     4    2
     4     3     5    1
     5     5     6    1
     6     6    22    1
     7    22    23   ar
     8    23    24   ar
     9    24    25    1
    10    24    26   ar
    11    26    27   ar
    12     6     7    1
    13     7     8    1
    14     8    15    1
    15    15    16   ar
    16    16    17   ar
    17    17    18   ar
    18    18    19    1
    19    18    20   ar
    20    20    21   ar
    21     8     9    1
    22    10     9    1
    23    10    11    1
    24    11    12    2
    25    11     2   am
    26    10     6    1
    27    27    22   ar
    28    21    15   ar
    29     4    13    1
    30     5    14    1
@<TRIPOS>MOLECULE
*****
 27 30 0 0 0
SMALL
GASTEIGER

@<TRIPOS>ATOM
      1 C          64.2310   83.1447   14.7846 C.3     1  UNL1        0.2159
      2 N          63.8091   84.3609   14.0145 N.am    1  UNL1       -0.1449
      3 C          64.2869   85.7187   14.4361 C.2     1  UNL1        0.3728
      4 N          65.1867   85.8606   15.6279 N.2     1  UNL1       -0.1329
      5 N          63.8650   86.9349   13.6659 N.pl3   1  UNL1       -0.2247
      6 C          62.9653   86.7930   12.4741 C.3     1  UNL1        0.1559
      7 C          62.3873   87.8025   11.5271 C.3     1  UNL1        0.1327
      8 N          61.5523   87.0684   10.5202 N.pl3   1  UNL1       -0.2740
      9 C          61.6142   85.6053   10.8449 C.3     1  UNL1        0.1079
     10 C          62.4875   85.4351   12.0525 C.3     1  UNL1        0.1498
     11 C          62.9094   84.2190   12.8227 C.2     1  UNL1        0.2919
     12 O          62.4316   82.8611   12.4011 O.2     1  UNL1       -0.2563
     13 H          65.4636   85.0624   16.1334 H       1  UNL1        0.3058
     14 H          64.1786   87.8261   13.9426 H       1  UNL1        0.2454
     15 C          60.7892   87.6886    9.3874 C.ar    1  UNL1        0.2204
     16 N          59.9935   86.8228    8.4562 N.ar    1  UNL1       -0.2097
     17 C          59.2305   87.4431    7.3235 C.ar    1  UNL1        0.1330
     18 C          59.2632   88.9291    7.1219 C.ar    1  UNL1        0.1784
     19 F          58.5001   89.5493    5.9891 F       1  UNL1       -0.2009
     20 C          60.0589   89.7949    8.0531 C.ar    1  UNL1        0.1330
     21 N          60.8219   89.1746    9.1858 N.ar    1  UNL1       -0.2097
     22 C          63.3608   88.2083   12.7750 C.ar    1  UNL1        0.0402
     23 C          64.1687   88.6666   13.9528 C.ar    1  UNL1        0.0124
     24 C          64.3250   90.1553   13.8567 C.ar    1  UNL1        0.0413
     25 BR         65.0630   91.0289   14.8273 Br      1  UNL1       -0.0485
     26 C          63.6137   90.6171   12.6194 C.ar    1  UNL1        0.0419
     27 S          63.0178   89.4137   11.9509 S.2     1  UNL1       -0.0872
@<TRIPOS>BOND
     1     1     2    1
     2     2     3    1
     3     3     4    2
     4     3     5    1
     5     5     6    1
     6     6    22    1
     7    22    23   ar
     8    23    24   ar
     9    24    25    1
    10    24    26   ar
    11    26    27   ar
    12     6     7    1
    13     7     8    1
    14     8    15    1
    15    15    16   ar
    16    16    17   ar
    17    17    18   ar
    18    18    19    1
    19    18    20   ar
    20    20    21   ar
    21     8     9    1
    22    10     9    1
    23    10    11    1
    24    11    12    2
    25    11     2   am
    26    10     6    1
    27    27    22   ar
    28    21    15   ar
    29     4    13    1
    30     5    14    1
@<TRIPOS>MOLECULE
*****
 27 30 0 0 0
SMALL
GASTEIGER

@<TRIPOS>ATOM
      1 C          63.2443   80.3281   13.9816 C.3     1  UNL1        0.2159
      2 N          63.1996   81.7108   13.4016 N.am    1  UNL1       -0.1449
      3 C          62.7771   81.9132   11.9767 C.2     1  UNL1        0.3728
      4 N          62.3992   80.7328   11.1316 N.2     1  UNL1       -0.1329
      5 N          62.7324   83.2959   11.3968 N.pl3   1  UNL1       -0.2247
      6 C          63.1103   84.4761   12.2419 C.3     1  UNL1        0.1559
      7 C          63.1626   85.9459   11.9472 C.3     1  UNL1        0.1327
      8 N          63.6176   86.6519   13.1900 N.pl3   1  UNL1       -0.2740
      9 C          63.8463   85.6184   14.2528 C.3     1  UNL1        0.1079
     10 C          63.5328   84.2737   13.6669 C.3     1  UNL1        0.1498
     11 C          63.5775   82.8910   14.2467 C.2     1  UNL1        0.2919
     12 O          64.0000   82.6886   15.6717 O.2     1  UNL1       -0.2563
     13 H          62.4285   79.8254   11.5122 H       1  UNL1        0.3058
     14 H          62.4551   83.4287   10.4616 H       1  UNL1        0.2454
     15 C          63.8099   88.1316   13.3432 C.ar    1  UNL1        0.2204
     16 N          64.5742   88.6712   14.5157 N.ar    1  UNL1       -0.2097
     17 C          64.7665   90.1510   14.6687 C.ar    1  UNL1        0.1330
     18 C          64.1946   91.0911   13.6494 C.ar    1  UNL1        0.1784
     19 F          64.3870   92.5708   13.8026 F       1  UNL1       -0.2009
     20 C          63.4304   90.5515   12.4769 C.ar    1  UNL1        0.1330
     21 N          63.2380   89.0718   12.3238 N.ar    1  UNL1       -0.2097
     22 C          62.7102   84.8320   10.8408 C.ar    1  UNL1        0.0402
     23 C          61.4914   85.6106   10.4427 C.ar    1  UNL1        0.0124
     24 C          61.4866   85.7316    8.9476 C.ar    1  UNL1        0.0413
     25 BR         60.4483   86.4332    8.1231 Br      1  UNL1       -0.0485
     26 C          62.7024   85.0278    8.4216 C.ar    1  UNL1        0.0419
     27 S          63.4586   84.4719    9.5917 S.2     1  UNL1       -0.0872
@<TRIPOS>BOND
     1     1     2    1
     2     2     3    1
     3     3     4    2
     4     3     5    1
     5     5     6    1
     6     6    22    1
     7    22    23   ar
     8    23    24   ar
     9    24    25    1
    10    24    26   ar
    11    26    27   ar
    12     6     7    1
    13     7     8    1
    14     8    15    1
    15    15    16   ar
    16    16    17   ar
    17    17    18   ar
    18    18    19    1
    19    18    20   ar
    20    20    21   ar
    21     8     9    1
    22    10     9    1
    23    10    11    1
    24    11    12    2
    25    11     2   am
    26    10     6    1
    27    27    22   ar
    28    21    15   ar
    29     4    13    1
    30     5    14    1
@<TRIPOS>MOLECULE
*****
 27 30 0 0 0
SMALL
GASTEIGER

@<TRIPOS>ATOM
      1 C          60.7949   91.1318    5.0961 C.3     1  UNL1        0.2159
      2 N          60.8364   91.8720    3.7920 N.am    1  UNL1       -0.1449
      3 C          59.5747   92.4362    3.2094 C.2     1  UNL1        0.3728
      4 N          58.2713   92.2602    3.9307 N.2     1  UNL1       -0.1329
      5 N          59.6162   93.1764    1.9053 N.pl3   1  UNL1       -0.2247
      6 C          60.9196   93.3523    1.1840 C.3     1  UNL1        0.1559
      7 C          61.2681   94.0297   -0.1081 C.3     1  UNL1        0.1327
      8 N          62.7454   93.8841   -0.3240 N.pl3   1  UNL1       -0.2740
      9 C          63.3098   93.1168    0.8347 C.3     1  UNL1        0.1079
     10 C          62.1814   92.7881    1.7668 C.3     1  UNL1        0.1498
     11 C          62.1398   92.0479    3.0707 C.2     1  UNL1        0.2919
     12 O          63.4016   91.4836    3.6535 O.2     1  UNL1       -0.2563
     13 H          58.2440   91.7744    4.7866 H       1  UNL1        0.3058
     14 H          58.7881   93.5467    1.5229 H       1  UNL1        0.2454
     15 C          63.5219   94.4130   -1.4933 C.ar    1  UNL1        0.2204
     16 N          63.5286   93.6610   -2.7911 N.ar    1  UNL1       -0.2097
     17 C          64.3052   94.1900   -3.9604 C.ar    1  UNL1        0.1330
     18 C          65.0750   95.4710   -3.8318 C.ar    1  UNL1        0.1784
     19 F          65.8515   95.9999   -5.0012 F       1  UNL1       -0.2009
     20 C          65.0683   96.2230   -2.5340 C.ar    1  UNL1        0.1330
     21 N          64.2917   95.6940   -1.3647 N.ar    1  UNL1       -0.2097
     22 C          59.7459   93.9687    0.4824 C.ar    1  UNL1        0.0402
     23 C          58.6471   93.2253   -0.2176 C.ar    1  UNL1        0.0124
     24 C          57.6870   94.2340   -0.7751 C.ar    1  UNL1        0.0413
     25 BR         56.4404   93.9293   -1.5517 Br      1  UNL1       -0.0485
     26 C          58.1924   95.6008   -0.4197 C.ar    1  UNL1        0.0419
     27 S          59.4649   95.4369    0.3575 S.2     1  UNL1       -0.0872
@<TRIPOS>BOND
     1     1     2    1
     2     2     3    1
     3     3     4    2
     4     3     5    1
     5     5     6    1
     6     6    22    1
     7    22    23   ar
     8    23    24   ar
     9    24    25    1
    10    24    26   ar
    11    26    27   ar
    12     6     7    1
    13     7     8    1
    14     8    15    1
    15    15    16   ar
    16    16    17   ar
    17    17    18   ar
    18    18    19    1
    19    18    20   ar
    20    20    21   ar
    21     8     9    1
    22    10     9    1
    23    10    11    1
    24    11    12    2
    25    11     2   am
    26    10     6    1
    27    27    22   ar
    28    21    15   ar
    29     4    13    1
    30     5    14    1
@<TRIPOS>MOLECULE
*****
 27 30 0 0 0
SMALL
GASTEIGER

@<TRIPOS>ATOM
      1 C          64.0946   81.1174   13.8004 C.3     1  UNL1        0.2159
      2 N          63.7327   82.5007   13.3468 N.am    1  UNL1       -0.1449
      3 C          64.2009   83.6926   14.1277 C.2     1  UNL1        0.3728
      4 N          65.0311   83.5014   15.3625 N.2     1  UNL1       -0.1329
      5 N          63.8390   85.0759   13.6741 N.pl3   1  UNL1       -0.2247
      6 C          63.0089   85.2671   12.4395 C.3     1  UNL1        0.1559
      7 C          62.4991   86.4999   11.7539 C.3     1  UNL1        0.1327
      8 N          61.7158   86.0699   10.5491 N.pl3   1  UNL1       -0.2740
      9 C          61.7415   84.5713   10.4901 C.3     1  UNL1        0.1079
     10 C          62.5407   84.0751   11.6585 C.3     1  UNL1        0.1498
     11 C          62.9026   82.6919   12.1121 C.2     1  UNL1        0.2919
     12 O          62.4344   81.4999   11.3311 O.2     1  UNL1       -0.2563
     13 H          65.2686   82.5935   15.6602 H       1  UNL1        0.3058
     14 H          64.1463   85.8582   14.1868 H       1  UNL1        0.2454
     15 C          61.0276   86.9789    9.5744 C.ar    1  UNL1        0.2204
     16 N          61.1464   88.4667    9.7237 N.ar    1  UNL1       -0.2097
     17 C          60.4581   89.3756    8.7489 C.ar    1  UNL1        0.1330
     18 C          59.6511   88.7968    7.6248 C.ar    1  UNL1        0.1784
     19 F          58.9629   89.7058    6.6501 F       1  UNL1       -0.2009
     20 C          59.5322   87.3090    7.4755 C.ar    1  UNL1        0.1330
     21 N          60.2205   86.4001    8.4503 N.ar    1  UNL1       -0.2097
     22 C          63.4026   86.5475   13.1144 C.ar    1  UNL1        0.0402
     23 C          63.2532   87.9268   12.5443 C.ar    1  UNL1        0.0124
     24 C          63.7732   88.9052   13.5554 C.ar    1  UNL1        0.0413
     25 BR         63.8150   90.3964   13.3990 Br      1  UNL1       -0.0485
     26 C          64.2440   88.1305   14.7505 C.ar    1  UNL1        0.0419
     27 S          64.0149   86.6734   14.4779 S.2     1  UNL1       -0.0872
@<TRIPOS>BOND
     1     1     2    1
     2     2     3    1
     3     3     4    2
     4     3     5    1
     5     5     6    1
     6     6    22    1
     7    22    23   ar
     8    23    24   ar
     9    24    25    1
    10    24    26   ar
    11    26    27   ar
    12     6     7    1
    13     7     8    1
    14     8    15    1
    15    15    16   ar
    16    16    17   ar
    17    17    18   ar
    18    18    19    1
    19    18    20   ar
    20    20    21   ar
    21     8     9    1
    22    10     9    1
    23    10    11    1
    24    11    12    2
    25    11     2   am
    26    10     6    1
    27    27    22   ar
    28    21    15   ar
    29     4    13    1
    30     5    14    1
@<TRIPOS>MOLECULE
*****
 27 30 0 0 0
SMALL
GASTEIGER

@<TRIPOS>ATOM
      1 C          60.1318   89.6882    8.0395 C.3     1  UNL1        0.2159
      2 N          60.8423   88.9330    9.1235 N.am    1  UNL1       -0.1449
      3 C          61.6023   89.6766   10.1814 C.2     1  UNL1        0.3728
      4 N          61.6520   91.1757   10.1553 N.2     1  UNL1       -0.1329
      5 N          62.3128   88.9214   11.2654 N.pl3   1  UNL1       -0.2247
      6 C          62.2631   87.4225   11.2914 C.3     1  UNL1        0.1559
      7 C          62.8608   86.4145   12.2277 C.3     1  UNL1        0.1327
      8 N          62.4701   85.0479   11.7485 N.pl3   1  UNL1       -0.2740
      9 C          61.6309   85.2112   10.5160 C.3     1  UNL1        0.1079
     10 C          61.5030   86.6788   10.2334 C.3     1  UNL1        0.1498
     11 C          60.7926   87.4340    9.1495 C.2     1  UNL1        0.2919
     12 O          60.0325   86.6903    8.0916 O.2     1  UNL1       -0.2563
     13 H          61.1857   91.6714    9.4439 H       1  UNL1        0.3058
     14 H          62.8116   89.4095   11.9597 H       1  UNL1        0.2454
     15 C          62.8516   83.7464   12.3894 C.ar    1  UNL1        0.2204
     16 N          62.8303   82.4801   11.5857 N.ar    1  UNL1       -0.2097
     17 C          63.2118   81.1786   12.2266 C.ar    1  UNL1        0.1330
     18 C          63.6145   81.1435   13.6711 C.ar    1  UNL1        0.1784
     19 F          63.9960   79.8420   14.3119 F       1  UNL1       -0.2009
     20 C          63.6358   82.4098   14.4748 C.ar    1  UNL1        0.1330
     21 N          63.2543   83.7113   13.8338 N.ar    1  UNL1       -0.2097
     22 C          63.0589   88.0261   12.4104 C.ar    1  UNL1        0.0402
     23 C          63.4023   89.4780   12.5648 C.ar    1  UNL1        0.0124
     24 C          64.2067   89.6330   13.8214 C.ar    1  UNL1        0.0413
     25 BR         64.7602   90.9184   14.3611 Br      1  UNL1       -0.0485
     26 C          64.3603   88.2768   14.4437 C.ar    1  UNL1        0.0419
     27 S          63.6509   87.2837   13.5716 S.2     1  UNL1       -0.0872
@<TRIPOS>BOND
     1     1     2    1
     2     2     3    1
     3     3     4    2
     4     3     5    1
     5     5     6    1
     6     6    22    1
     7    22    23   ar
     8    23    24   ar
     9    24    25    1
    10    24    26   ar
    11    26    27   ar
    12     6     7    1
    13     7     8    1
    14     8    15    1
    15    15    16   ar
    16    16    17   ar
    17    17    18   ar
    18    18    19    1
    19    18    20   ar
    20    20    21   ar
    21     8     9    1
    22    10     9    1
    23    10    11    1
    24    11    12    2
    25    11     2   am
    26    10     6    1
    27    27    22   ar
    28    21    15   ar
    29     4    13    1
    30     5    14    1
@<TRIPOS>MOLECULE
*****
 27 30 0 0 0
SMALL
GASTEIGER

@<TRIPOS>ATOM
      1 C          73.3109   78.8313   13.6330 C.3     1  UNL1        0.2159
      2 N          72.8916   77.4308   13.9694 N.am    1  UNL1       -0.1449
      3 C          73.0512   76.9159   15.3690 C.2     1  UNL1        0.3728
      4 N          73.6302   77.8013   16.4325 N.2     1  UNL1       -0.1329
      5 N          72.6319   75.5154   15.7054 N.pl3   1  UNL1       -0.2247
      6 C          72.0530   74.6301   14.6419 C.3     1  UNL1        0.1559
      7 C          71.5542   73.2158   14.6752 C.3     1  UNL1        0.1327
      8 N          71.0863   72.8568   13.2960 N.pl3   1  UNL1       -0.2740
      9 C          71.2959   74.0491   12.4103 C.3     1  UNL1        0.1079
     10 C          71.8934   75.1451   13.2422 C.3     1  UNL1        0.1498
     11 C          72.3127   76.5455   12.9059 C.2     1  UNL1        0.2919
     12 O          72.1530   77.0605   11.5061 O.2     1  UNL1       -0.2563
     13 H          73.9054   78.7204   16.2118 H       1  UNL1        0.3058
     14 H          72.7367   75.1774   16.6241 H       1  UNL1        0.2454
     15 C          70.5100   71.5371   12.8761 C.ar    1  UNL1        0.2204
     16 N          70.6693   70.3344   13.7582 N.ar    1  UNL1       -0.2097
     17 C          70.0929   69.0147   13.3383 C.ar    1  UNL1        0.1330
     18 C          69.3572   68.8978   12.0363 C.ar    1  UNL1        0.1784
     19 F          68.7809   67.5781   11.6165 F       1  UNL1       -0.2009
     20 C          69.1979   70.1005   11.1543 C.ar    1  UNL1        0.1330
     21 N          69.7743   71.4201   11.5742 N.ar    1  UNL1       -0.2097
     22 C          72.1515   73.9800   15.9901 C.ar    1  UNL1        0.0402
     23 C          70.9988   73.5874   16.8660 C.ar    1  UNL1        0.0124
     24 C          71.5550   72.9731   18.1164 C.ar    1  UNL1        0.0413
     25 BR         70.7552   72.4396   19.2677 Br      1  UNL1       -0.0485
     26 C          73.0514   72.9860   18.0132 C.ar    1  UNL1        0.0419
     27 S          73.4200   73.6083   16.6990 S.2     1  UNL1       -0.0872
@<TRIPOS>BOND
     1     1     2    1
     2     2     3    1
     3     3     4    2
     4     3     5    1
     5     5     6    1
     6     6    22    1
     7    22    23   ar
     8    23    24   ar
     9    24    25    1
    10    24    26   ar
    11    26    27   ar
    12     6     7    1
    13     7     8    1
    14     8    15    1
    15    15    16   ar
    16    16    17   ar
    17    17    18   ar
    18    18    19    1
    19    18    20   ar
    20    20    21   ar
    21     8     9    1
    22    10     9    1
    23    10    11    1
    24    11    12    2
    25    11     2   am
    26    10     6    1
    27    27    22   ar
    28    21    15   ar
    29     4    13    1
    30     5    14    1
@<TRIPOS>MOLECULE
*****
 27 30 0 0 0
SMALL
GASTEIGER

@<TRIPOS>ATOM
      1 C          58.8275   88.2629    6.5725 C.3     1  UNL1        0.2159
      2 N          59.7251   88.1743    7.7711 N.am    1  UNL1       -0.1449
      3 C          60.3270   89.4197    8.3511 C.2     1  UNL1        0.3728
      4 N          60.0313   90.7540    7.7325 N.2     1  UNL1       -0.1329
      5 N          61.2247   89.3311    9.5496 N.pl3   1  UNL1       -0.2247
      6 C          61.5203   87.9969   10.1681 C.3     1  UNL1        0.1559
      7 C          62.3616   87.6006   11.3451 C.3     1  UNL1        0.1327
      8 N          62.2795   86.1101   11.4924 N.pl3   1  UNL1       -0.2740
      9 C          61.3876   85.5853   10.4066 C.3     1  UNL1        0.1079
     10 C          60.9184   86.7514    9.5881 C.3     1  UNL1        0.1498
     11 C          60.0208   86.8401    8.3896 C.2     1  UNL1        0.2919
     12 O          59.4189   85.5946    7.8096 O.2     1  UNL1       -0.2563
     13 H          59.4422   90.8122    6.9459 H       1  UNL1        0.3058
     14 H          61.6197   90.1486    9.9303 H       1  UNL1        0.2454
     15 C          62.9685   85.2886   12.5415 C.ar    1  UNL1        0.2204
     16 N          63.5928   85.9592   13.7291 N.ar    1  UNL1       -0.2097
     17 C          64.2818   85.1376   14.7781 C.ar    1  UNL1        0.1330
     18 C          64.3464   83.6455   14.6395 C.ar    1  UNL1        0.1784
     19 F          65.0353   82.8240   15.6886 F       1  UNL1       -0.2009
     20 C          63.7220   82.9748   13.4520 C.ar    1  UNL1        0.1330
     21 N          63.0331   83.7964   12.4029 N.ar    1  UNL1       -0.2097
     22 C          62.1910   89.1497   10.8546 C.ar    1  UNL1        0.0402
     23 C          63.2050   90.0709   10.2436 C.ar    1  UNL1        0.0124
     24 C          63.6060   91.0743   11.2840 C.ar    1  UNL1        0.0413
     25 BR         64.5989   92.1838   11.1024 Br      1  UNL1       -0.0485
     26 C          62.8398   90.7733   12.5380 C.ar    1  UNL1        0.0419
     27 S          61.9653   89.5838   12.2725 S.2     1  UNL1       -0.0872
@<TRIPOS>BOND
     1     1     2    1
     2     2     3    1
     3     3     4    2
     4     3     5    1
     5     5     6    1
     6     6    22    1
     7    22    23   ar
     8    23    24   ar
     9    24    25    1
    10    24    26   ar
    11    26    27   ar
    12     6     7    1
    13     7     8    1
    14     8    15    1
    15    15    16   ar
    16    16    17   ar
    17    17    18   ar
    18    18    19    1
    19    18    20   ar
    20    20    21   ar
    21     8     9    1
    22    10     9    1
    23    10    11    1
    24    11    12    2
    25    11     2   am
    26    10     6    1
    27    27    22   ar
    28    21    15   ar
    29     4    13    1
    30     5    14    1
@<TRIPOS>MOLECULE
*****
 27 30 0 0 0
SMALL
GASTEIGER

@<TRIPOS>ATOM
      1 C          62.8961   79.5874   12.0416 C.3     1  UNL1        0.2159
      2 N          62.9510   81.0480   12.3791 N.am    1  UNL1       -0.1449
      3 C          63.2350   81.4824   13.7863 C.2     1  UNL1        0.3728
      4 N          63.4642   80.4563   14.8563 N.2     1  UNL1       -0.1329
      5 N          63.2898   82.9430   14.1238 N.pl3   1  UNL1       -0.2247
      6 C          63.0605   83.9690   13.0539 C.3     1  UNL1        0.1559
      7 C          63.0525   85.4686   13.0866 C.3     1  UNL1        0.1327
      8 N          62.7635   85.9609   11.6995 N.pl3   1  UNL1       -0.2740
      9 C          62.5929   84.7656   10.8095 C.3     1  UNL1        0.1079
     10 C          62.7765   83.5345   11.6466 C.3     1  UNL1        0.1498
     11 C          62.7217   82.0740   11.3092 C.2     1  UNL1        0.2919
     12 O          62.4377   81.6395    9.9018 O.2     1  UNL1       -0.2563
     13 H          63.4283   79.4977   14.6348 H       1  UNL1        0.3058
     14 H          63.4762   83.2282   15.0475 H       1  UNL1        0.2454
     15 C          62.6628   87.3966   11.2766 C.ar    1  UNL1        0.2204
     16 N          63.1758   88.4813   12.1767 N.ar    1  UNL1       -0.2097
     17 C          63.0750   89.9170   11.7537 C.ar    1  UNL1        0.1330
     18 C          62.4613   90.2678   10.4307 C.ar    1  UNL1        0.1784
     19 F          62.3606   91.7035   10.0078 F       1  UNL1       -0.2009
     20 C          61.9483   89.1831    9.5307 C.ar    1  UNL1        0.1330
     21 N          62.0491   87.7474    9.9537 N.ar    1  UNL1       -0.2097
     22 C          63.3325   84.5511   14.4093 C.ar    1  UNL1        0.0402
     23 C          62.3065   85.1047   15.3532 C.ar    1  UNL1        0.0124
     24 C          63.0181   85.5776   16.5860 C.ar    1  UNL1        0.0413
     25 BR         62.3766   86.2022   17.7895 Br      1  UNL1       -0.0485
     26 C          64.4839   85.3163   16.4042 C.ar    1  UNL1        0.0419
     27 S          64.6782   84.6818   15.0588 S.2     1  UNL1       -0.0872
@<TRIPOS>BOND
     1     1     2    1
     2     2     3    1
     3     3     4    2
     4     3     5    1
     5     5     6    1
     6     6    22    1
     7    22    23   ar
     8    23    24   ar
     9    24    25    1
    10    24    26   ar
    11    26    27   ar
    12     6     7    1
    13     7     8    1
    14     8    15    1
    15    15    16   ar
    16    16    17   ar
    17    17    18   ar
    18    18    19    1
    19    18    20   ar
    20    20    21   ar
    21     8     9    1
    22    10     9    1
    23    10    11    1
    24    11    12    2
    25    11     2   am
    26    10     6    1
    27    27    22   ar
    28    21    15   ar
    29     4    13    1
    30     5    14    1
