@<TRIPOS>MOLECULE
*****
 41 45 0 0 0
SMALL
GASTEIGER

@<TRIPOS>ATOM
      1 C          63.0872   82.7494   11.9995 C.ar    1  UNL1       -0.0020
      2 C          62.7533   81.2872   11.9850 C.ar    1  UNL1        0.0179
      3 C          62.4491   80.5745   13.2693 C.ar    1  UNL1        0.1014
      4 N          62.4788   81.3241   14.5683 N.ar    1  UNL1       -0.2149
      5 C          62.8127   82.7864   14.5828 C.ar    1  UNL1        0.1933
      6 C          63.1169   83.4991   13.2984 C.ar    1  UNL1        0.0487
      7 C          64.4555   82.9349    9.7988 C.3     1  UNL1        0.0222
      8 C          63.3915   83.4621   10.7151 C.3     1  UNL1        0.0804
      9 N          62.6316   84.7019   10.3472 N.3     1  UNL1       -0.2674
     10 C          62.0725   85.5857   11.4225 C.3     1  UNL1        0.0941
     11 C          61.3126   86.8256   11.0545 C.3     1  UNL1        0.1107
     12 N          61.1119   87.1816    9.6113 N.am    1  UNL1       -0.2764
     13 C          60.3521   88.4215    9.2433 C.2     1  UNL1        0.2344
     14 O          60.1514   88.7775    7.8001 O.2     1  UNL1       -0.2746
     15 C          61.6711   86.2978    8.5360 C.3     1  UNL1        0.1107
     16 C          62.4309   85.0580    8.9039 C.3     1  UNL1        0.0941
     17 C          59.7929   89.3052   10.3186 C.3     1  UNL1        0.1882
     18 C          60.7165   90.1159   11.1788 C.3     1  UNL1        0.4063
     19 F          61.6400   90.9266   12.0390 F       1  UNL1       -0.1695
     20 F          61.5856   90.3900    9.9874 F       1  UNL1       -0.1695
     21 F          59.8473   89.8419   12.3702 F       1  UNL1       -0.1695
     22 N          62.8424   83.5360   15.8817 N.pl3   1  UNL1       -0.1848
     23 H          62.6986   83.0572   16.7298 H       1  UNL1        0.2530
     24 C          63.0912   85.0152   15.8885 C.cat   1  UNL1        0.4252
     25 N          62.5672   85.9928   16.8982 N.2     1  UNL1       -0.0676
     26 C          63.0599   87.3584   16.5205 C.2     1  UNL1        0.1887
     27 C          62.8611   88.7062   17.1480 C.2     1  UNL1        0.0396
     28 C          63.4909   89.9203   16.5322 C.2     1  UNL1        0.0008
     29 C          64.3194   89.7866   15.2889 C.2     1  UNL1        0.0033
     30 C          64.5181   88.4388   14.6614 C.3     1  UNL1        0.0950
     31 C          63.8884   87.2247   15.2772 C.2     1  UNL1        0.1745
     32 N          63.9078   85.7765   14.8866 N.2     1  UNL1       -0.0714
     33 C          64.9491   91.0009   14.6731 C.ar    1  UNL1        0.0823
     34 C          64.7678   91.2797   13.2105 C.ar    1  UNL1        0.0532
     35 C          65.3976   92.4939   12.5947 C.ar    1  UNL1        0.1351
     36 N          66.2086   93.4293   13.4417 N.ar    1  UNL1       -0.2090
     37 C          66.3899   93.1504   14.9044 C.ar    1  UNL1        0.2000
     38 N          65.7602   91.9362   15.5201 N.ar    1  UNL1       -0.2242
     39 N          65.2162   92.7728   11.1321 N.pl3   1  UNL1       -0.2897
     40 C          66.0240   93.8480   10.4678 C.3     1  UNL1        0.1136
     41 C          64.2271   91.9763   10.3338 C.3     1  UNL1        0.1136
@<TRIPOS>BOND
     1     8     7    1
     2     8     1    1
     3     1     2   ar
     4     2     3   ar
     5     3     4   ar
     6     4     5   ar
     7     5    22    1
     8    22    24    1
     9    24    25    2
    10    25    26    1
    11    26    27    2
    12    27    28    1
    13    28    29    2
    14    29    33    1
    15    33    34   ar
    16    34    35   ar
    17    35    39    1
    18    39    40    1
    19    39    41    1
    20    35    36   ar
    21    36    37   ar
    22    37    38   ar
    23    29    30    1
    24    30    31    1
    25    31    32    2
    26     5     6   ar
    27     8     9    1
    28     9    10    1
    29    10    11    1
    30    11    12    1
    31    12    13   am
    32    13    14    2
    33    13    17    1
    34    17    18    1
    35    18    19    1
    36    18    20    1
    37    18    21    1
    38    12    15    1
    39    15    16    1
    40     6     1   ar
    41    16     9    1
    42    32    24    1
    43    31    26    1
    44    38    33   ar
    45    22    23    1
@<TRIPOS>MOLECULE
*****
 41 45 0 0 0
SMALL
GASTEIGER

@<TRIPOS>ATOM
      1 C          63.0401   82.7877   12.1099 C.ar    1  UNL1       -0.0020
      2 C          62.7224   81.3229   12.1668 C.ar    1  UNL1        0.0179
      3 C          62.3774   80.6806   13.4777 C.ar    1  UNL1        0.1014
      4 N          62.3501   81.5032   14.7318 N.ar    1  UNL1       -0.2149
      5 C          62.6678   82.9681   14.6749 C.ar    1  UNL1        0.1933
      6 C          63.0129   83.6103   13.3639 C.ar    1  UNL1        0.0487
      7 C          64.3814   82.7805    9.8848 C.3     1  UNL1        0.0222
      8 C          63.3852   83.4300   10.7990 C.3     1  UNL1        0.0804
      9 N          62.7340   84.7217   10.4022 N.3     1  UNL1       -0.2674
     10 C          62.6654   85.8579   11.3790 C.3     1  UNL1        0.0941
     11 C          62.0141   87.1497   10.9822 C.3     1  UNL1        0.1107
     12 N          61.4316   87.3051    9.6087 N.am    1  UNL1       -0.2764
     13 C          60.7804   88.5968    9.2120 C.2     1  UNL1        0.2344
     14 O          60.1979   88.7522    7.8385 O.2     1  UNL1       -0.2746
     15 C          61.5003   86.1687    8.6320 C.3     1  UNL1        0.1107
     16 C          62.1515   84.8771    9.0287 C.3     1  UNL1        0.0941
     17 C          60.7118   89.7331   10.1887 C.3     1  UNL1        0.1882
     18 C          59.6332   89.7623   11.2308 C.3     1  UNL1        0.4063
     19 F          58.5546   89.7915   12.2728 F       1  UNL1       -0.1695
     20 F          59.1429   88.4248   10.7609 F       1  UNL1       -0.1695
     21 F          60.1234   91.0997   11.7007 F       1  UNL1       -0.1695
     22 N          62.6406   83.7907   15.9289 N.pl3   1  UNL1       -0.1848
     23 H          62.3921   83.3740   16.7856 H       1  UNL1        0.2530
     24 C          62.9918   85.2481   15.8776 C.cat   1  UNL1        0.4252
     25 N          62.5099   86.3051   16.8266 N.2     1  UNL1       -0.0676
     26 C          63.1068   87.6146   16.4039 C.2     1  UNL1        0.1887
     27 C          62.9856   89.0005   16.9646 C.2     1  UNL1        0.0396
     28 C          63.7151   90.1389   16.3151 C.2     1  UNL1        0.0008
     29 C          64.5660   89.8912   15.1048 C.2     1  UNL1        0.0033
     30 C          64.6872   88.5053   14.5441 C.3     1  UNL1        0.0950
     31 C          63.9577   87.3670   15.1936 C.2     1  UNL1        0.1745
     32 N          63.8865   85.9044   14.8684 N.2     1  UNL1       -0.0714
     33 C          65.2956   91.0296   14.4553 C.ar    1  UNL1        0.0823
     34 C          66.6207   91.4776   14.9968 C.ar    1  UNL1        0.0532
     35 C          67.3503   92.6160   14.3472 C.ar    1  UNL1        0.1351
     36 N          66.7546   93.3064   13.1562 N.ar    1  UNL1       -0.2090
     37 C          65.4294   92.8584   12.6147 C.ar    1  UNL1        0.2000
     38 N          64.6999   91.7200   13.2642 N.ar    1  UNL1       -0.2242
     39 N          68.6754   93.0640   14.8887 N.pl3   1  UNL1       -0.2897
     40 C          69.9451   92.4859   14.3375 C.3     1  UNL1        0.1136
     41 C          68.7309   94.0900   15.9815 C.3     1  UNL1        0.1136
@<TRIPOS>BOND
     1     8     7    1
     2     8     1    1
     3     1     2   ar
     4     2     3   ar
     5     3     4   ar
     6     4     5   ar
     7     5    22    1
     8    22    24    1
     9    24    25    2
    10    25    26    1
    11    26    27    2
    12    27    28    1
    13    28    29    2
    14    29    33    1
    15    33    34   ar
    16    34    35   ar
    17    35    39    1
    18    39    40    1
    19    39    41    1
    20    35    36   ar
    21    36    37   ar
    22    37    38   ar
    23    29    30    1
    24    30    31    1
    25    31    32    2
    26     5     6   ar
    27     8     9    1
    28     9    10    1
    29    10    11    1
    30    11    12    1
    31    12    13   am
    32    13    14    2
    33    13    17    1
    34    17    18    1
    35    18    19    1
    36    18    20    1
    37    18    21    1
    38    12    15    1
    39    15    16    1
    40     6     1   ar
    41    16     9    1
    42    32    24    1
    43    31    26    1
    44    38    33   ar
    45    22    23    1
@<TRIPOS>MOLECULE
*****
 41 45 0 0 0
SMALL
GASTEIGER

@<TRIPOS>ATOM
      1 C          61.0085   88.8911   10.2862 C.ar    1  UNL1       -0.0020
      2 C          61.6239   87.5331   10.1214 C.ar    1  UNL1        0.0179
      3 C          61.2936   86.7011    8.9179 C.ar    1  UNL1        0.1014
      4 N          60.3480   87.2270    7.8790 N.ar    1  UNL1       -0.2149
      5 C          59.7326   88.5850    8.0438 C.ar    1  UNL1        0.1933
      6 C          60.0629   89.4171    9.2475 C.ar    1  UNL1        0.0487
      7 C          60.4073   89.7445   12.6654 C.3     1  UNL1        0.0222
      8 C          61.3388   89.7231   11.4899 C.3     1  UNL1        0.0804
      9 N          62.6006   90.5337   11.5180 N.3     1  UNL1       -0.2674
     10 C          63.0940   91.1969   10.2664 C.3     1  UNL1        0.0941
     11 C          64.3558   92.0076   10.2944 C.3     1  UNL1        0.1107
     12 N          65.1243   92.1549   11.5742 N.am    1  UNL1       -0.2764
     13 C          66.3861   92.9654   11.6023 C.2     1  UNL1        0.2344
     14 O          67.1545   93.1127   12.8821 O.2     1  UNL1       -0.2746
     15 C          64.6309   91.4916   12.8259 C.3     1  UNL1        0.1107
     16 C          63.3691   90.6810   12.7978 C.3     1  UNL1        0.0941
     17 C          66.8794   93.6287   10.3506 C.3     1  UNL1        0.1882
     18 C          68.0348   93.0410    9.5958 C.3     1  UNL1        0.4063
     19 F          69.1901   92.4533    8.8409 F       1  UNL1       -0.1695
     20 F          67.6919   91.6816   10.1293 F       1  UNL1       -0.1695
     21 F          68.3776   94.4003    9.0623 F       1  UNL1       -0.1695
     22 N          58.7870   89.1110    7.0050 N.pl3   1  UNL1       -0.1848
     23 H          57.8398   88.8432    7.0209 H       1  UNL1        0.2530
     24 C          59.2846   90.0451    5.9421 C.cat   1  UNL1        0.4252
     25 N          58.4602   91.0535    5.1981 N.2     1  UNL1       -0.0676
     26 C          59.3600   91.7665    4.2327 C.2     1  UNL1        0.1887
     27 C          59.1006   92.8593    3.2385 C.2     1  UNL1        0.0396
     28 C          60.2218   93.3843    2.3916 C.2     1  UNL1        0.0008
     29 C          61.6023   92.8165    2.5389 C.2     1  UNL1        0.0033
     30 C          61.8617   91.7237    3.5330 C.3     1  UNL1        0.0950
     31 C          60.7405   91.1987    4.3799 C.2     1  UNL1        0.1745
     32 N          60.6939   90.1348    5.4364 N.2     1  UNL1       -0.0714
     33 C          62.7235   93.3416    1.6919 C.ar    1  UNL1        0.0823
     34 C          62.5337   93.5037    0.2128 C.ar    1  UNL1        0.0532
     35 C          63.6549   94.0288   -0.6342 C.ar    1  UNL1        0.1351
     36 N          64.9658   94.3917   -0.0020 N.ar    1  UNL1       -0.2090
     37 C          65.1556   94.2295    1.4771 C.ar    1  UNL1        0.2000
     38 N          64.0345   93.7045    2.3240 N.ar    1  UNL1       -0.2242
     39 N          63.4650   94.1909   -2.1132 N.pl3   1  UNL1       -0.2897
     40 C          62.2960   93.5436   -2.7948 C.3     1  UNL1        0.1136
     41 C          64.4442   95.0003   -2.9107 C.3     1  UNL1        0.1136
@<TRIPOS>BOND
     1     8     7    1
     2     8     1    1
     3     1     2   ar
     4     2     3   ar
     5     3     4   ar
     6     4     5   ar
     7     5    22    1
     8    22    24    1
     9    24    25    2
    10    25    26    1
    11    26    27    2
    12    27    28    1
    13    28    29    2
    14    29    33    1
    15    33    34   ar
    16    34    35   ar
    17    35    39    1
    18    39    40    1
    19    39    41    1
    20    35    36   ar
    21    36    37   ar
    22    37    38   ar
    23    29    30    1
    24    30    31    1
    25    31    32    2
    26     5     6   ar
    27     8     9    1
    28     9    10    1
    29    10    11    1
    30    11    12    1
    31    12    13   am
    32    13    14    2
    33    13    17    1
    34    17    18    1
    35    18    19    1
    36    18    20    1
    37    18    21    1
    38    12    15    1
    39    15    16    1
    40     6     1   ar
    41    16     9    1
    42    32    24    1
    43    31    26    1
    44    38    33   ar
    45    22    23    1
@<TRIPOS>MOLECULE
*****
 41 45 0 0 0
SMALL
GASTEIGER

@<TRIPOS>ATOM
      1 C          60.9148   88.8445   10.3668 C.ar    1  UNL1       -0.0020
      2 C          61.6687   87.5636   10.1647 C.ar    1  UNL1        0.0179
      3 C          61.4867   86.7777    8.9001 C.ar    1  UNL1        0.1014
      4 N          60.5508   87.2728    7.8375 N.ar    1  UNL1       -0.2149
      5 C          59.7970   88.5538    8.0396 C.ar    1  UNL1        0.1933
      6 C          59.9790   89.3396    9.3042 C.ar    1  UNL1        0.0487
      7 C          59.9533   89.7845   12.5898 C.3     1  UNL1        0.0222
      8 C          61.0969   89.6304   11.6314 C.3     1  UNL1        0.0804
      9 N          62.4224   90.2621   11.9377 N.3     1  UNL1       -0.2674
     10 C          63.0792   90.0214   13.2645 C.3     1  UNL1        0.0941
     11 C          64.4048   90.6531   13.5708 C.3     1  UNL1        0.1107
     12 N          65.0736   91.5256   12.5502 N.am    1  UNL1       -0.2764
     13 C          66.3991   92.1573   12.8565 C.2     1  UNL1        0.2344
     14 O          67.0678   93.0297   11.8358 O.2     1  UNL1       -0.2746
     15 C          64.4167   91.7663   11.2233 C.3     1  UNL1        0.1107
     16 C          63.0911   91.1346   10.9171 C.3     1  UNL1        0.0941
     17 C          67.0559   91.9166   14.1833 C.3     1  UNL1        0.1882
     18 C          67.6262   93.0677   14.9577 C.3     1  UNL1        0.4063
     19 F          68.1965   94.2188   15.7321 F       1  UNL1       -0.1695
     20 F          66.3165   93.7905   14.8480 F       1  UNL1       -0.1695
     21 F          68.9360   92.3450   15.0675 F       1  UNL1       -0.1695
     22 N          58.8611   89.0489    6.9770 N.pl3   1  UNL1       -0.1848
     23 H          57.9249   88.7444    6.9648 H       1  UNL1        0.2530
     24 C          59.3516   90.0078    5.9331 C.cat   1  UNL1        0.4252
     25 N          58.5391   91.0798    5.2693 N.2     1  UNL1       -0.0676
     26 C          59.4260   91.7977    4.2956 C.2     1  UNL1        0.1887
     27 C          59.1704   92.9424    3.3605 C.2     1  UNL1        0.0396
     28 C          60.2755   93.4587    2.4874 C.2     1  UNL1        0.0008
     29 C          61.6361   92.8303    2.5495 C.2     1  UNL1        0.0033
     30 C          61.8917   91.6857    3.4846 C.3     1  UNL1        0.0950
     31 C          60.7866   91.1694    4.3576 C.2     1  UNL1        0.1745
     32 N          60.7406   90.0632    5.3696 N.2     1  UNL1       -0.0714
     33 C          62.7412   93.3467    1.6764 C.ar    1  UNL1        0.0823
     34 C          62.5218   93.4993    0.2004 C.ar    1  UNL1        0.0532
     35 C          63.6268   94.0157   -0.6727 C.ar    1  UNL1        0.1351
     36 N          64.9513   94.3794   -0.0698 N.ar    1  UNL1       -0.2090
     37 C          65.1707   94.2267    1.4063 C.ar    1  UNL1        0.2000
     38 N          64.0656   93.7103    2.2793 N.ar    1  UNL1       -0.2242
     39 N          63.4074   94.1683   -2.1487 N.pl3   1  UNL1       -0.2897
     40 C          64.4411   94.8519   -2.9938 C.3     1  UNL1        0.1136
     41 C          62.1544   93.6374   -2.7794 C.3     1  UNL1        0.1136
@<TRIPOS>BOND
     1     8     7    1
     2     8     1    1
     3     1     2   ar
     4     2     3   ar
     5     3     4   ar
     6     4     5   ar
     7     5    22    1
     8    22    24    1
     9    24    25    2
    10    25    26    1
    11    26    27    2
    12    27    28    1
    13    28    29    2
    14    29    33    1
    15    33    34   ar
    16    34    35   ar
    17    35    39    1
    18    39    40    1
    19    39    41    1
    20    35    36   ar
    21    36    37   ar
    22    37    38   ar
    23    29    30    1
    24    30    31    1
    25    31    32    2
    26     5     6   ar
    27     8     9    1
    28     9    10    1
    29    10    11    1
    30    11    12    1
    31    12    13   am
    32    13    14    2
    33    13    17    1
    34    17    18    1
    35    18    19    1
    36    18    20    1
    37    18    21    1
    38    12    15    1
    39    15    16    1
    40     6     1   ar
    41    16     9    1
    42    32    24    1
    43    31    26    1
    44    38    33   ar
    45    22    23    1
@<TRIPOS>MOLECULE
*****
 41 45 0 0 0
SMALL
GASTEIGER

@<TRIPOS>ATOM
      1 C          60.9062   88.8895   10.2455 C.ar    1  UNL1       -0.0020
      2 C          61.4542   87.5008   10.0996 C.ar    1  UNL1        0.0179
      3 C          61.1165   86.6848    8.8872 C.ar    1  UNL1        0.1014
      4 N          60.2307   87.2574    7.8206 N.ar    1  UNL1       -0.2149
      5 C          59.6827   88.6461    7.9665 C.ar    1  UNL1        0.1933
      6 C          60.0205   89.4621    9.1789 C.ar    1  UNL1        0.0487
      7 C          60.3126   89.7230   12.6336 C.3     1  UNL1        0.0222
      8 C          61.2440   89.7056   11.4580 C.3     1  UNL1        0.0804
      9 N          62.5132   90.5042   11.4947 N.3     1  UNL1       -0.2674
     10 C          63.0174   91.1689   10.2482 C.3     1  UNL1        0.0941
     11 C          64.2866   91.9675   10.2849 C.3     1  UNL1        0.1107
     12 N          65.0515   92.1015   11.5683 N.am    1  UNL1       -0.2764
     13 C          66.3207   92.9002   11.6051 C.2     1  UNL1        0.2344
     14 O          67.0856   93.0342   12.8884 O.2     1  UNL1       -0.2746
     15 C          64.5472   91.4369   12.8149 C.3     1  UNL1        0.1107
     16 C          63.2781   90.6382   12.7781 C.3     1  UNL1        0.0941
     17 C          66.8249   93.5648   10.3585 C.3     1  UNL1        0.1882
     18 C          68.0219   93.0102    9.6445 C.3     1  UNL1        0.4063
     19 F          69.2188   92.4556    8.9305 F       1  UNL1       -0.1695
     20 F          67.6607   91.6309   10.1103 F       1  UNL1       -0.1695
     21 F          68.3830   94.3895    9.1787 F       1  UNL1       -0.1695
     22 N          58.7970   89.2187    6.8999 N.pl3   1  UNL1       -0.1848
     23 H          57.8375   88.9988    6.8865 H       1  UNL1        0.2530
     24 C          59.3732   90.1263    5.8539 C.cat   1  UNL1        0.4252
     25 N          60.8074   90.1688    5.4164 N.2     1  UNL1       -0.0676
     26 C          60.9370   91.2196    4.3538 C.2     1  UNL1        0.1887
     27 C          62.1130   91.7021    3.5576 C.2     1  UNL1        0.0396
     28 C          61.9349   92.7916    2.5421 C.2     1  UNL1        0.0008
     29 C          60.5809   93.3986    2.3229 C.2     1  UNL1        0.0033
     30 C          59.4048   92.9160    3.1191 C.3     1  UNL1        0.0950
     31 C          59.5829   91.8265    4.1346 C.2     1  UNL1        0.1745
     32 N          58.6164   91.1509    5.0617 N.2     1  UNL1       -0.0714
     33 C          60.4028   94.4881    1.3073 C.ar    1  UNL1        0.0823
     34 C          59.1684   94.5255    0.4560 C.ar    1  UNL1        0.0532
     35 C          58.9904   95.6150   -0.5596 C.ar    1  UNL1        0.1351
     36 N          60.0469   96.6672   -0.7238 N.ar    1  UNL1       -0.2090
     37 C          61.2813   96.6297    0.1276 C.ar    1  UNL1        0.2000
     38 N          61.4593   95.5402    1.1431 N.ar    1  UNL1       -0.2242
     39 N          57.7560   95.6524   -1.4109 N.pl3   1  UNL1       -0.2897
     40 C          57.4660   96.8551   -2.2591 C.3     1  UNL1        0.1136
     41 C          56.8116   94.4871   -1.4141 C.3     1  UNL1        0.1136
@<TRIPOS>BOND
     1     8     7    1
     2     8     1    1
     3     1     2   ar
     4     2     3   ar
     5     3     4   ar
     6     4     5   ar
     7     5    22    1
     8    22    24    1
     9    24    25    2
    10    25    26    1
    11    26    27    2
    12    27    28    1
    13    28    29    2
    14    29    33    1
    15    33    34   ar
    16    34    35   ar
    17    35    39    1
    18    39    40    1
    19    39    41    1
    20    35    36   ar
    21    36    37   ar
    22    37    38   ar
    23    29    30    1
    24    30    31    1
    25    31    32    2
    26     5     6   ar
    27     8     9    1
    28     9    10    1
    29    10    11    1
    30    11    12    1
    31    12    13   am
    32    13    14    2
    33    13    17    1
    34    17    18    1
    35    18    19    1
    36    18    20    1
    37    18    21    1
    38    12    15    1
    39    15    16    1
    40     6     1   ar
    41    16     9    1
    42    32    24    1
    43    31    26    1
    44    38    33   ar
    45    22    23    1
@<TRIPOS>MOLECULE
*****
 41 45 0 0 0
SMALL
GASTEIGER

@<TRIPOS>ATOM
      1 C          63.5456   86.0581   15.3779 C.ar    1  UNL1       -0.0020
      2 C          62.8409   85.1625   16.3533 C.ar    1  UNL1        0.0179
      3 C          62.1926   85.7457   17.5738 C.ar    1  UNL1        0.1014
      4 N          62.2490   87.2245   17.8189 N.ar    1  UNL1       -0.2149
      5 C          62.9537   88.1201   16.8436 C.ar    1  UNL1        0.1933
      6 C          63.6020   87.5368   15.6230 C.ar    1  UNL1        0.0487
      7 C          65.5074   84.7601   14.2749 C.3     1  UNL1        0.0222
      8 C          64.1939   85.4749   14.1574 C.3     1  UNL1        0.0804
      9 N          63.5287   85.6064   12.8195 N.3     1  UNL1       -0.2674
     10 C          63.4142   84.4128   11.9183 C.3     1  UNL1        0.0941
     11 C          62.7489   84.5443   10.5803 C.3     1  UNL1        0.1107
     12 N          62.1983   85.8694   10.1435 N.am    1  UNL1       -0.2764
     13 C          61.5330   86.0009    8.8055 C.2     1  UNL1        0.2344
     14 O          60.9824   87.3261    8.3688 O.2     1  UNL1       -0.2746
     15 C          62.3128   87.0631   11.0447 C.3     1  UNL1        0.1107
     16 C          62.9780   86.9315   12.3827 C.3     1  UNL1        0.0941
     17 C          61.4185   84.8073    7.9044 C.3     1  UNL1        0.1882
     18 C          62.2198   84.7441    6.6379 C.3     1  UNL1        0.4063
     19 F          63.0212   84.6809    5.3715 F       1  UNL1       -0.1695
     20 F          60.9858   84.3607    5.8762 F       1  UNL1       -0.1695
     21 F          63.4538   85.1275    7.3995 F       1  UNL1       -0.1695
     22 N          63.0101   89.5988   17.0887 N.pl3   1  UNL1       -0.1848
     23 H          62.4986   89.9946   17.8309 H       1  UNL1        0.2530
     24 C          63.8458   90.4745   16.2029 C.cat   1  UNL1        0.4252
     25 N          64.7690   91.5652   16.6591 N.2     1  UNL1       -0.0676
     26 C          65.3989   92.1781   15.4435 C.2     1  UNL1        0.1887
     27 C          66.3896   93.2924   15.2802 C.2     1  UNL1        0.0396
     28 C          66.8464   93.6949   13.9093 C.2     1  UNL1        0.0008
     29 C          66.3124   92.9830   12.7018 C.2     1  UNL1        0.0033
     30 C          65.3217   91.8687   12.8651 C.3     1  UNL1        0.0950
     31 C          64.8650   91.4662   14.2360 C.2     1  UNL1        0.1745
     32 N          63.9051   90.4134   14.7053 N.2     1  UNL1       -0.0714
     33 C          66.7693   93.3855   11.3308 C.ar    1  UNL1        0.0823
     34 C          66.1937   94.6066   10.6769 C.ar    1  UNL1        0.0532
     35 C          66.6505   95.0091    9.3060 C.ar    1  UNL1        0.1351
     36 N          67.6829   94.1905    8.5891 N.ar    1  UNL1       -0.2090
     37 C          68.2585   92.9693    9.2430 C.ar    1  UNL1        0.2000
     38 N          67.8017   92.5669   10.6139 N.ar    1  UNL1       -0.2242
     39 N          66.0750   96.2302    8.6521 N.pl3   1  UNL1       -0.2897
     40 C          66.7480   96.8255    7.4510 C.3     1  UNL1        0.1136
     41 C          64.8264   96.8559    9.1993 C.3     1  UNL1        0.1136
@<TRIPOS>BOND
     1     8     7    1
     2     8     1    1
     3     1     2   ar
     4     2     3   ar
     5     3     4   ar
     6     4     5   ar
     7     5    22    1
     8    22    24    1
     9    24    25    2
    10    25    26    1
    11    26    27    2
    12    27    28    1
    13    28    29    2
    14    29    33    1
    15    33    34   ar
    16    34    35   ar
    17    35    39    1
    18    39    40    1
    19    39    41    1
    20    35    36   ar
    21    36    37   ar
    22    37    38   ar
    23    29    30    1
    24    30    31    1
    25    31    32    2
    26     5     6   ar
    27     8     9    1
    28     9    10    1
    29    10    11    1
    30    11    12    1
    31    12    13   am
    32    13    14    2
    33    13    17    1
    34    17    18    1
    35    18    19    1
    36    18    20    1
    37    18    21    1
    38    12    15    1
    39    15    16    1
    40     6     1   ar
    41    16     9    1
    42    32    24    1
    43    31    26    1
    44    38    33   ar
    45    22    23    1
@<TRIPOS>MOLECULE
*****
 41 45 0 0 0
SMALL
GASTEIGER

@<TRIPOS>ATOM
      1 C          60.5658   89.0107    9.9827 C.ar    1  UNL1       -0.0020
      2 C          60.9112   87.5612    9.8107 C.ar    1  UNL1        0.0179
      3 C          60.5108   86.8382    8.5589 C.ar    1  UNL1        0.1014
      4 N          59.7650   87.5648    7.4791 N.ar    1  UNL1       -0.2149
      5 C          59.4196   89.0143    7.6511 C.ar    1  UNL1        0.1933
      6 C          59.8200   89.7373    8.9030 C.ar    1  UNL1        0.0487
      7 C          60.0550   89.7312   12.4261 C.3     1  UNL1        0.0222
      8 C          60.9662   89.7336   11.2346 C.3     1  UNL1        0.0804
      9 N          62.2778   90.4589   11.2949 N.3     1  UNL1       -0.2674
     10 C          62.8096   91.1496   10.0743 C.3     1  UNL1        0.0941
     11 C          64.1212   91.8750   10.1346 C.3     1  UNL1        0.1107
     12 N          64.9010   91.9096   11.4155 N.am    1  UNL1       -0.2764
     13 C          66.2125   92.6349   11.4758 C.2     1  UNL1        0.2344
     14 O          66.9922   92.6694   12.7568 O.2     1  UNL1       -0.2746
     15 C          64.3690   91.2188   12.6362 C.3     1  UNL1        0.1107
     16 C          63.0575   90.4935   12.5759 C.3     1  UNL1        0.0941
     17 C          66.7444   93.3256   10.2552 C.3     1  UNL1        0.1882
     18 C          68.0660   92.9145    9.6768 C.3     1  UNL1        0.4063
     19 F          69.3875   92.5035    9.0984 F       1  UNL1       -0.1695
     20 F          68.3764   94.3489    9.3666 F       1  UNL1       -0.1695
     21 F          67.7556   91.4802    9.9870 F       1  UNL1       -0.1695
     22 N          58.6738   89.7409    6.5714 N.pl3   1  UNL1       -0.1848
     23 H          57.6909   89.6971    6.5370 H       1  UNL1        0.2530
     24 C          59.4256   90.5343    5.5441 C.cat   1  UNL1        0.4252
     25 N          60.8780   90.3816    5.2016 N.2     1  UNL1       -0.0676
     26 C          61.2070   91.3726    4.1247 C.2     1  UNL1        0.1887
     27 C          62.4826   91.6770    3.3966 C.2     1  UNL1        0.0396
     28 C          62.5091   92.7467    2.3454 C.2     1  UNL1        0.0008
     29 C          61.2601   93.5119    2.0223 C.2     1  UNL1        0.0033
     30 C          59.9845   93.2075    2.7505 C.3     1  UNL1        0.0950
     31 C          59.9580   92.1378    3.8016 C.2     1  UNL1        0.1745
     32 N          58.8570   91.6197    4.6789 N.2     1  UNL1       -0.0714
     33 C          61.2867   94.5816    0.9711 C.ar    1  UNL1        0.0823
     34 C          62.4880   94.7336    0.0860 C.ar    1  UNL1        0.0532
     35 C          62.5146   95.8034   -0.9653 C.ar    1  UNL1        0.1351
     36 N          61.3398   96.7211   -1.1313 N.ar    1  UNL1       -0.2090
     37 C          60.1383   96.5690   -0.2461 C.ar    1  UNL1        0.2000
     38 N          60.1118   95.4993    0.8051 N.ar    1  UNL1       -0.2242
     39 N          63.7160   95.9554   -1.8504 N.pl3   1  UNL1       -0.2897
     40 C          63.5603   95.9051   -3.3415 C.3     1  UNL1        0.1136
     41 C          65.0732   96.1577   -1.2445 C.3     1  UNL1        0.1136
@<TRIPOS>BOND
     1     8     7    1
     2     8     1    1
     3     1     2   ar
     4     2     3   ar
     5     3     4   ar
     6     4     5   ar
     7     5    22    1
     8    22    24    1
     9    24    25    2
    10    25    26    1
    11    26    27    2
    12    27    28    1
    13    28    29    2
    14    29    33    1
    15    33    34   ar
    16    34    35   ar
    17    35    39    1
    18    39    40    1
    19    39    41    1
    20    35    36   ar
    21    36    37   ar
    22    37    38   ar
    23    29    30    1
    24    30    31    1
    25    31    32    2
    26     5     6   ar
    27     8     9    1
    28     9    10    1
    29    10    11    1
    30    11    12    1
    31    12    13   am
    32    13    14    2
    33    13    17    1
    34    17    18    1
    35    18    19    1
    36    18    20    1
    37    18    21    1
    38    12    15    1
    39    15    16    1
    40     6     1   ar
    41    16     9    1
    42    32    24    1
    43    31    26    1
    44    38    33   ar
    45    22    23    1
@<TRIPOS>MOLECULE
*****
 41 45 0 0 0
SMALL
GASTEIGER

@<TRIPOS>ATOM
      1 C          65.0326   92.2138   12.8695 C.ar    1  UNL1       -0.0020
      2 C          66.1521   93.1661   13.1692 C.ar    1  UNL1        0.0179
      3 C          66.5793   93.3987   14.5881 C.ar    1  UNL1        0.1014
      4 N          65.8870   92.6790   15.7074 N.ar    1  UNL1       -0.2149
      5 C          64.7675   91.7267   15.4078 C.ar    1  UNL1        0.1933
      6 C          64.3403   91.4941   13.9888 C.ar    1  UNL1        0.0487
      7 C          65.0991   92.8861   10.3608 C.3     1  UNL1        0.0222
      8 C          64.6054   91.9812   11.4505 C.3     1  UNL1        0.0804
      9 N          63.6846   90.8438   11.1213 N.3     1  UNL1       -0.2674
     10 C          62.8176   90.9105    9.8992 C.3     1  UNL1        0.0941
     11 C          61.8967   89.7731    9.5699 C.3     1  UNL1        0.1107
     12 N          61.8429   88.5690   10.4629 N.am    1  UNL1       -0.2764
     13 C          60.9221   87.4316   10.1337 C.2     1  UNL1        0.2344
     14 O          60.8683   86.2276   11.0267 O.2     1  UNL1       -0.2746
     15 C          62.7100   88.5024   11.6851 C.3     1  UNL1        0.1107
     16 C          63.6308   89.6398   12.0143 C.3     1  UNL1        0.0941
     17 C          60.0551   87.4983    8.9115 C.3     1  UNL1        0.1882
     18 C          60.0614   86.3684    7.9249 C.3     1  UNL1        0.4063
     19 F          60.0678   85.2385    6.9384 F       1  UNL1       -0.1695
     20 F          58.5715   86.4774    7.7904 F       1  UNL1       -0.1695
     21 F          61.5513   86.2593    8.0594 F       1  UNL1       -0.1695
     22 N          64.0753   91.0069   16.5270 N.pl3   1  UNL1       -0.1848
     23 H          63.8316   91.4923   17.3481 H       1  UNL1        0.2530
     24 C          63.7543   89.5476   16.3951 C.cat   1  UNL1        0.4252
     25 N          63.1236   88.6850   17.4478 N.2     1  UNL1       -0.0676
     26 C          62.9871   87.2989   16.8908 C.2     1  UNL1        0.1887
     27 C          62.4360   86.0322   17.4751 C.2     1  UNL1        0.0396
     28 C          62.4311   84.7714   16.6624 C.2     1  UNL1        0.0008
     29 C          62.9775   84.7774   15.2655 C.2     1  UNL1        0.0033
     30 C          63.5286   86.0442   14.6812 C.3     1  UNL1        0.0950
     31 C          63.5334   87.3049   15.4938 C.2     1  UNL1        0.1745
     32 N          64.0076   88.6947   15.1875 N.2     1  UNL1       -0.0714
     33 C          62.9726   83.5166   14.4528 C.ar    1  UNL1        0.0823
     34 C          63.2696   83.5701   12.9836 C.ar    1  UNL1        0.0532
     35 C          63.2648   82.3093   12.1709 C.ar    1  UNL1        0.1351
     36 N          62.9629   80.9949   12.8276 N.ar    1  UNL1       -0.2090
     37 C          62.6659   80.9414   14.2970 C.ar    1  UNL1        0.2000
     38 N          62.6707   82.2022   15.1096 N.ar    1  UNL1       -0.2242
     39 N          63.5618   82.3629   10.7016 N.pl3   1  UNL1       -0.2897
     40 C          63.8584   83.6779   10.0438 C.3     1  UNL1        0.1136
     41 C          63.5623   81.1014    9.8901 C.3     1  UNL1        0.1136
@<TRIPOS>BOND
     1     8     7    1
     2     8     1    1
     3     1     2   ar
     4     2     3   ar
     5     3     4   ar
     6     4     5   ar
     7     5    22    1
     8    22    24    1
     9    24    25    2
    10    25    26    1
    11    26    27    2
    12    27    28    1
    13    28    29    2
    14    29    33    1
    15    33    34   ar
    16    34    35   ar
    17    35    39    1
    18    39    40    1
    19    39    41    1
    20    35    36   ar
    21    36    37   ar
    22    37    38   ar
    23    29    30    1
    24    30    31    1
    25    31    32    2
    26     5     6   ar
    27     8     9    1
    28     9    10    1
    29    10    11    1
    30    11    12    1
    31    12    13   am
    32    13    14    2
    33    13    17    1
    34    17    18    1
    35    18    19    1
    36    18    20    1
    37    18    21    1
    38    12    15    1
    39    15    16    1
    40     6     1   ar
    41    16     9    1
    42    32    24    1
    43    31    26    1
    44    38    33   ar
    45    22    23    1
@<TRIPOS>MOLECULE
*****
 41 45 0 0 0
SMALL
GASTEIGER

@<TRIPOS>ATOM
      1 C          63.1401   83.0581   12.0160 C.ar    1  UNL1       -0.0020
      2 C          63.0831   81.5600   12.0681 C.ar    1  UNL1        0.0179
      3 C          62.8992   80.8618   13.3828 C.ar    1  UNL1        0.1014
      4 N          62.7721   81.6615   14.6455 N.ar    1  UNL1       -0.2149
      5 C          62.8290   83.1595   14.5934 C.ar    1  UNL1        0.1933
      6 C          63.0130   83.8578   13.2786 C.ar    1  UNL1        0.0487
      7 C          64.3406   83.2523    9.7201 C.3     1  UNL1        0.0222
      8 C          63.3240   83.7564   10.7012 C.3     1  UNL1        0.0804
      9 N          62.4915   84.9586   10.3676 N.3     1  UNL1       -0.2674
     10 C          61.7279   85.0075    9.0774 C.3     1  UNL1        0.0941
     11 C          60.8954   86.2099    8.7437 C.3     1  UNL1        0.1107
     12 N          60.8264   87.3633    9.7003 N.am    1  UNL1       -0.2764
     13 C          59.9939   88.5656    9.3666 C.2     1  UNL1        0.2344
     14 O          59.9250   89.7190   10.3231 O.2     1  UNL1       -0.2746
     15 C          61.5901   87.3144   10.9904 C.3     1  UNL1        0.1107
     16 C          62.4226   86.1121   11.3241 C.3     1  UNL1        0.0941
     17 C          59.2303   88.6145    8.0765 C.3     1  UNL1        0.1882
     18 C          59.7393   89.4435    6.9347 C.3     1  UNL1        0.4063
     19 F          60.2481   90.2725    5.7928 F       1  UNL1       -0.1695
     20 F          60.8665   89.9347    7.7937 F       1  UNL1       -0.1695
     21 F          58.6120   88.9523    6.0756 F       1  UNL1       -0.1695
     22 N          62.7020   83.9592   15.8560 N.pl3   1  UNL1       -0.1848
     23 H          62.4002   83.5241   16.6860 H       1  UNL1        0.2530
     24 C          63.0348   85.4218   15.8541 C.cat   1  UNL1        0.4252
     25 N          62.4676   86.4563   16.7805 N.2     1  UNL1       -0.0676
     26 C          63.0755   87.7806   16.4244 C.2     1  UNL1        0.1887
     27 C          62.8923   89.1552   16.9960 C.2     1  UNL1        0.0396
     28 C          63.6520   90.3138   16.4211 C.2     1  UNL1        0.0008
     29 C          64.5949   90.0978   15.2747 C.2     1  UNL1        0.0033
     30 C          64.7781   88.7231   14.7032 C.3     1  UNL1        0.0950
     31 C          64.0184   87.5646   15.2780 C.2     1  UNL1        0.1745
     32 N          63.9933   86.1068   14.9256 N.2     1  UNL1       -0.0714
     33 C          65.3546   91.2565   14.6999 C.ar    1  UNL1        0.0823
     34 C          66.5691   91.7816   15.4063 C.ar    1  UNL1        0.0532
     35 C          67.3288   92.9403   14.8315 C.ar    1  UNL1        0.1351
     36 N          66.8739   93.5738   13.5502 N.ar    1  UNL1       -0.2090
     37 C          65.6593   93.0486   12.8437 C.ar    1  UNL1        0.2000
     38 N          64.8997   91.8900   13.4186 N.ar    1  UNL1       -0.2242
     39 N          68.5433   93.4654   15.5379 N.pl3   1  UNL1       -0.2897
     40 C          68.7501   94.9447   15.6754 C.3     1  UNL1        0.1136
     41 C          69.5511   92.5112   16.1069 C.3     1  UNL1        0.1136
@<TRIPOS>BOND
     1     8     7    1
     2     8     1    1
     3     1     2   ar
     4     2     3   ar
     5     3     4   ar
     6     4     5   ar
     7     5    22    1
     8    22    24    1
     9    24    25    2
    10    25    26    1
    11    26    27    2
    12    27    28    1
    13    28    29    2
    14    29    33    1
    15    33    34   ar
    16    34    35   ar
    17    35    39    1
    18    39    40    1
    19    39    41    1
    20    35    36   ar
    21    36    37   ar
    22    37    38   ar
    23    29    30    1
    24    30    31    1
    25    31    32    2
    26     5     6   ar
    27     8     9    1
    28     9    10    1
    29    10    11    1
    30    11    12    1
    31    12    13   am
    32    13    14    2
    33    13    17    1
    34    17    18    1
    35    18    19    1
    36    18    20    1
    37    18    21    1
    38    12    15    1
    39    15    16    1
    40     6     1   ar
    41    16     9    1
    42    32    24    1
    43    31    26    1
    44    38    33   ar
    45    22    23    1
