@<TRIPOS>MOLECULE
*****
 35 39 0 0 0
SMALL
GASTEIGER

@<TRIPOS>ATOM
      1 C          64.1952   89.9928   15.0583 C.2     1  UNL1        0.0033
      2 C          63.9931   88.5971   14.5472 C.2     1  UNL1        0.0641
      3 C          64.2553   88.2814   13.1044 C.3     1  UNL1        0.0383
      4 C          64.0532   86.8857   12.5932 C.3     1  UNL1        0.0557
      5 C          63.5888   85.8057   13.5249 C.3     1  UNL1        0.2029
      6 N          63.3266   86.1215   14.9677 N.pl3   1  UNL1       -0.1874
      7 C          63.5287   87.5171   15.4788 C.2     1  UNL1        0.3654
      8 N          63.3268   88.0423   16.8693 N.2     1  UNL1        0.1546
      9 O          62.8728   87.3015   18.0921 O.2     1  UNL1       -0.2798
     10 C          62.5087   85.8526   18.2263 C.3     1  UNL1        0.2733
     11 C          62.5086   84.7866   17.1711 C.3     1  UNL1        0.1043
     12 C          62.8726   84.9062   15.7208 C.3     1  UNL1        0.1868
     13 C          62.7689   83.6438   14.9175 C.ar    1  UNL1        0.0246
     14 C          63.9254   83.1940   14.0747 C.ar    1  UNL1        0.0317
     15 C          63.8217   81.9314   13.2713 C.ar    1  UNL1        0.1695
     16 F          64.9781   81.4816   12.4285 F       1  UNL1       -0.2017
     17 C          62.5615   81.1187   13.3108 C.ar    1  UNL1        0.1946
     18 F          62.4578   79.8562   12.5075 F       1  UNL1       -0.1994
     19 C          61.4051   81.5685   14.1536 C.ar    1  UNL1        0.1695
     20 F          60.1449   80.7558   14.1931 F       1  UNL1       -0.2017
     21 C          61.5087   82.8310   14.9570 C.ar    1  UNL1        0.0317
     22 C          66.2591   93.0491   13.5922 C.ar    1  UNL1        0.1547
     23 C          65.7947   91.9691   14.5239 C.ar    1  UNL1        0.0384
     24 C          64.6595   91.0728   14.1266 C.ar    1  UNL1        0.0030
     25 C          63.9886   91.2564   12.7976 C.ar    1  UNL1        0.0017
     26 C          64.4529   92.3365   11.8659 C.ar    1  UNL1        0.0206
     27 C          65.5882   93.2328   12.2632 C.ar    1  UNL1        0.0994
     28 N          66.0525   94.3128   11.3315 N.ar    1  UNL1       -0.2839
     29 C          66.0711   95.7834   11.6259 C.ar    1  UNL1        0.1826
     30 N          66.6098   96.4912   10.4181 N.ar    1  UNL1       -0.2280
     31 C          66.9242   95.4579    9.3773 C.ar    1  UNL1        0.0786
     32 C          67.4846   95.7243    8.0116 C.3     1  UNL1        0.0538
     33 C          66.5798   94.1116    9.9417 C.ar    1  UNL1        0.0963
     34 C          68.0825   93.7448   15.3071 C.3     1  UNL1        0.2525
     35 O          67.3943   93.9454   13.9896 O.3     1  UNL1       -0.4700
@<TRIPOS>BOND
     1    34    35    1
     2    35    22    1
     3    22    23   ar
     4    23    24   ar
     5    24     1    1
     6     1     2    2
     7     2     3    1
     8     3     4    1
     9     4     5    1
    10     5     6    1
    11     6     7    1
    12     7     8    2
    13     8     9    1
    14     9    10    1
    15    10    11    1
    16    11    12    1
    17    12    13    1
    18    13    14   ar
    19    14    15   ar
    20    15    16    1
    21    15    17   ar
    22    17    18    1
    23    17    19   ar
    24    19    20    1
    25    19    21   ar
    26    24    25   ar
    27    25    26   ar
    28    26    27   ar
    29    27    28    1
    30    28    29   ar
    31    29    30   ar
    32    30    31   ar
    33    31    32    1
    34    31    33   ar
    35    27    22   ar
    36    33    28   ar
    37     7     2    1
    38    21    13   ar
    39    12     6    1
@<TRIPOS>MOLECULE
*****
 35 39 0 0 0
SMALL
GASTEIGER

@<TRIPOS>ATOM
      1 C          64.2591   90.1039   15.0874 C.2     1  UNL1        0.0033
      2 C          64.0470   88.7042   14.5916 C.2     1  UNL1        0.0641
      3 C          64.2989   88.3727   13.1505 C.3     1  UNL1        0.0383
      4 C          64.0868   86.9730   12.6547 C.3     1  UNL1        0.0557
      5 C          63.6228   85.9047   13.6000 C.3     1  UNL1        0.2029
      6 N          63.3708   86.2363   15.0411 N.pl3   1  UNL1       -0.1874
      7 C          63.5829   87.6359   15.5368 C.2     1  UNL1        0.3654
      8 N          63.3920   88.1762   16.9231 N.2     1  UNL1        0.1546
      9 O          62.9418   87.4499   18.1560 O.2     1  UNL1       -0.2798
     10 C          62.5713   86.0044   18.3071 C.3     1  UNL1        0.2733
     11 C          62.5596   84.9278   17.2627 C.3     1  UNL1        0.1043
     12 C          62.9154   85.0310   15.8092 C.3     1  UNL1        0.1868
     13 C          62.8006   83.7610   15.0193 C.ar    1  UNL1        0.0246
     14 C          61.5254   82.9717   15.0494 C.ar    1  UNL1        0.0317
     15 C          61.4106   81.7017   14.2594 C.ar    1  UNL1        0.1695
     16 F          60.1354   80.9124   14.2895 F       1  UNL1       -0.2017
     17 C          62.5710   81.2210   13.4394 C.ar    1  UNL1        0.1946
     18 F          62.4562   79.9510   12.6495 F       1  UNL1       -0.1994
     19 C          63.8462   82.0102   13.4093 C.ar    1  UNL1        0.1695
     20 F          65.0066   81.5296   12.5894 F       1  UNL1       -0.2017
     21 C          63.9610   83.2803   14.1993 C.ar    1  UNL1        0.0317
     22 C          64.6233   92.3100   11.8086 C.ar    1  UNL1        0.1547
     23 C          64.1592   91.2418   12.7539 C.ar    1  UNL1        0.0384
     24 C          64.7231   91.1722   14.1420 C.ar    1  UNL1        0.0030
     25 C          65.7511   92.1707   14.5851 C.ar    1  UNL1        0.0017
     26 C          66.2152   93.2390   13.6398 C.ar    1  UNL1        0.0206
     27 C          65.6513   93.3086   12.2515 C.ar    1  UNL1        0.0994
     28 N          66.1153   94.3769   11.3063 N.ar    1  UNL1       -0.2839
     29 C          66.1425   95.8504   11.5856 C.ar    1  UNL1        0.1826
     30 N          66.6777   96.5433   10.3677 N.ar    1  UNL1       -0.2280
     31 C          66.9813   95.4980    9.3356 C.ar    1  UNL1        0.0786
     32 C          67.5353   95.7479    7.9642 C.3     1  UNL1        0.0538
     33 C          66.6338   94.1591    9.9157 C.ar    1  UNL1        0.0963
     34 C          63.0593   91.3588    9.9650 C.3     1  UNL1        0.2525
     35 O          64.0594   92.3797   10.4204 O.3     1  UNL1       -0.4700
@<TRIPOS>BOND
     1    34    35    1
     2    35    22    1
     3    22    23   ar
     4    23    24   ar
     5    24     1    1
     6     1     2    2
     7     2     3    1
     8     3     4    1
     9     4     5    1
    10     5     6    1
    11     6     7    1
    12     7     8    2
    13     8     9    1
    14     9    10    1
    15    10    11    1
    16    11    12    1
    17    12    13    1
    18    13    14   ar
    19    14    15   ar
    20    15    16    1
    21    15    17   ar
    22    17    18    1
    23    17    19   ar
    24    19    20    1
    25    19    21   ar
    26    24    25   ar
    27    25    26   ar
    28    26    27   ar
    29    27    28    1
    30    28    29   ar
    31    29    30   ar
    32    30    31   ar
    33    31    32    1
    34    31    33   ar
    35    27    22   ar
    36    33    28   ar
    37     7     2    1
    38    21    13   ar
    39    12     6    1
@<TRIPOS>MOLECULE
*****
 35 39 0 0 0
SMALL
GASTEIGER

@<TRIPOS>ATOM
      1 C          59.3791   93.1397    2.4425 C.2     1  UNL1        0.0033
      2 C          60.6264   93.5778    1.7337 C.2     1  UNL1        0.0641
      3 C          61.9633   93.0681    2.1840 C.3     1  UNL1        0.0383
      4 C          63.2106   93.5062    1.4751 C.3     1  UNL1        0.0557
      5 C          63.1209   94.4540    0.3159 C.3     1  UNL1        0.2029
      6 N          61.7838   94.9636   -0.1344 N.pl3   1  UNL1       -0.1874
      7 C          60.5367   94.5255    0.5745 C.2     1  UNL1        0.3654
      8 N          59.1150   94.9103    0.2900 N.2     1  UNL1        0.1546
      9 O          58.5895   95.8281   -0.7738 O.2     1  UNL1       -0.2798
     10 C          59.3558   96.5878   -1.8155 C.3     1  UNL1        0.2733
     11 C          60.8369   96.6175   -2.0511 C.3     1  UNL1        0.1043
     12 C          61.9175   95.8946   -1.3029 C.3     1  UNL1        0.1868
     13 C          63.3167   96.1345   -1.7872 C.ar    1  UNL1        0.0246
     14 C          64.4209   96.3752   -0.8008 C.ar    1  UNL1        0.0317
     15 C          65.8202   96.6150   -1.2852 C.ar    1  UNL1        0.1695
     16 F          66.9244   96.8557   -0.2988 F       1  UNL1       -0.2017
     17 C          66.1153   96.6142   -2.7559 C.ar    1  UNL1        0.1946
     18 F          67.5145   96.8541   -3.2402 F       1  UNL1       -0.1994
     19 C          65.0111   96.3736   -3.7422 C.ar    1  UNL1        0.1695
     20 F          65.3062   96.3728   -5.2129 F       1  UNL1       -0.2017
     21 C          63.6118   96.1337   -3.2579 C.ar    1  UNL1        0.0317
     22 C          58.3068   90.7142    5.3950 C.ar    1  UNL1        0.1547
     23 C          58.2171   91.6620    4.2357 C.ar    1  UNL1        0.0384
     24 C          59.4689   92.1920    3.6018 C.ar    1  UNL1        0.0030
     25 C          60.8105   91.7743    4.1269 C.ar    1  UNL1        0.0017
     26 C          60.9002   90.8265    5.2861 C.ar    1  UNL1        0.0206
     27 C          59.6484   90.2964    5.9202 C.ar    1  UNL1        0.0994
     28 N          59.7382   89.3487    7.0793 N.ar    1  UNL1       -0.2839
     29 C          59.3179   87.9088    7.0757 C.ar    1  UNL1        0.1826
     30 N          59.5840   87.3447    8.4398 N.ar    1  UNL1       -0.2280
     31 C          60.1688   88.4360    9.2866 C.ar    1  UNL1        0.0786
     32 C          60.5852   88.3107   10.7223 C.3     1  UNL1        0.0538
     33 C          60.2641   89.6745    8.4458 C.ar    1  UNL1        0.0963
     34 C          55.7318   90.8210    5.7234 C.3     1  UNL1        0.2525
     35 O          57.0550   90.1841    6.0290 O.3     1  UNL1       -0.4700
@<TRIPOS>BOND
     1    34    35    1
     2    35    22    1
     3    22    23   ar
     4    23    24   ar
     5    24     1    1
     6     1     2    2
     7     2     3    1
     8     3     4    1
     9     4     5    1
    10     5     6    1
    11     6     7    1
    12     7     8    2
    13     8     9    1
    14     9    10    1
    15    10    11    1
    16    11    12    1
    17    12    13    1
    18    13    14   ar
    19    14    15   ar
    20    15    16    1
    21    15    17   ar
    22    17    18    1
    23    17    19   ar
    24    19    20    1
    25    19    21   ar
    26    24    25   ar
    27    25    26   ar
    28    26    27   ar
    29    27    28    1
    30    28    29   ar
    31    29    30   ar
    32    30    31   ar
    33    31    32    1
    34    31    33   ar
    35    27    22   ar
    36    33    28   ar
    37     7     2    1
    38    21    13   ar
    39    12     6    1
