@<TRIPOS>MOLECULE
*****
 13 14 0 0 0
SMALL
GASTEIGER

@<TRIPOS>ATOM
      1 C          68.2948   93.6211   15.6929 C.3     1  UNL1        0.0327
      2 C          67.2134   92.9799   14.8746 C.ar    1  UNL1       -0.0027
      3 C          66.7373   91.5981   15.2118 C.ar    1  UNL1       -0.0012
      4 C          65.6560   90.9568   14.3936 C.ar    1  UNL1        0.0189
      5 C          65.0507   91.6975   13.2382 C.ar    1  UNL1        0.0828
      6 N          65.5268   93.0793   12.9010 N.ar    1  UNL1       -0.2441
      7 C          66.6081   93.7206   13.7192 C.ar    1  UNL1        0.0945
      8 C          63.9693   91.0563   12.4200 C.ar    1  UNL1        0.0368
      9 C          63.8046   91.4235   10.9750 C.ar    1  UNL1        0.0046
     10 C          62.7232   90.7823   10.1568 C.ar    1  UNL1        0.0207
     11 C          61.8066   89.7738   10.7835 C.ar    1  UNL1        0.0989
     12 N          61.9714   89.4066   12.2285 N.ar    1  UNL1       -0.2423
     13 C          63.0527   90.0478   13.0467 C.ar    1  UNL1        0.1003
@<TRIPOS>BOND
     1     1     2    1
     2     2     3   ar
     3     3     4   ar
     4     4     5   ar
     5     5     8    1
     6     8     9   ar
     7     9    10   ar
     8    10    11   ar
     9    11    12   ar
    10    12    13   ar
    11     5     6   ar
    12     6     7   ar
    13     7     2   ar
    14    13     8   ar
@<TRIPOS>MOLECULE
*****
 13 14 0 0 0
SMALL
GASTEIGER

@<TRIPOS>ATOM
      1 C          64.5308   82.3532   12.1525 C.3     1  UNL1        0.0327
      2 C          63.7373   83.4318   11.4764 C.ar    1  UNL1       -0.0027
      3 C          63.8755   83.6504    9.9989 C.ar    1  UNL1       -0.0012
      4 C          63.0820   84.7289    9.3229 C.ar    1  UNL1        0.0189
      5 C          62.1503   85.5889   10.1243 C.ar    1  UNL1        0.0828
      6 N          62.0121   85.3703   11.6018 N.ar    1  UNL1       -0.2441
      7 C          62.8056   84.2917   12.2779 C.ar    1  UNL1        0.0945
      8 C          61.3568   86.6674    9.4482 C.ar    1  UNL1        0.0368
      9 C          60.3286   86.3077    8.4171 C.ar    1  UNL1        0.0046
     10 C          59.5351   87.3862    7.7410 C.ar    1  UNL1        0.0207
     11 C          59.7698   88.8245    8.0961 C.ar    1  UNL1        0.0989
     12 N          60.7980   89.1843    9.1273 N.ar    1  UNL1       -0.2423
     13 C          61.5915   88.1057    9.8033 C.ar    1  UNL1        0.1003
@<TRIPOS>BOND
     1     1     2    1
     2     2     3   ar
     3     3     4   ar
     4     4     5   ar
     5     5     8    1
     6     8     9   ar
     7     9    10   ar
     8    10    11   ar
     9    11    12   ar
    10    12    13   ar
    11     5     6   ar
    12     6     7   ar
    13     7     2   ar
    14    13     8   ar
@<TRIPOS>MOLECULE
*****
 13 14 0 0 0
SMALL
GASTEIGER

@<TRIPOS>ATOM
      1 C          60.0159   88.8689    8.5891 C.3     1  UNL1        0.0327
      2 C          60.7187   87.7649    9.3221 C.ar    1  UNL1       -0.0027
      3 C          61.6158   86.8219    8.5766 C.ar    1  UNL1       -0.0012
      4 C          62.3186   85.7180    9.3097 C.ar    1  UNL1        0.0189
      5 C          62.1242   85.5570   10.7883 C.ar    1  UNL1        0.0828
      6 N          61.2270   86.4999   11.5338 N.ar    1  UNL1       -0.2441
      7 C          60.5242   87.6039   10.8007 C.ar    1  UNL1        0.0945
      8 C          62.8269   84.4530   11.5213 C.ar    1  UNL1        0.0368
      9 C          63.6678   83.4673   10.7655 C.ar    1  UNL1        0.0046
     10 C          64.3706   82.3633   11.4985 C.ar    1  UNL1        0.0207
     11 C          64.2325   82.2450   12.9874 C.ar    1  UNL1        0.0989
     12 N          63.3916   83.2307   13.7433 N.ar    1  UNL1       -0.2423
     13 C          62.6889   84.3347   13.0102 C.ar    1  UNL1        0.1003
@<TRIPOS>BOND
     1     1     2    1
     2     2     3   ar
     3     3     4   ar
     4     4     5   ar
     5     5     8    1
     6     8     9   ar
     7     9    10   ar
     8    10    11   ar
     9    11    12   ar
    10    12    13   ar
    11     5     6   ar
    12     6     7   ar
    13     7     2   ar
    14    13     8   ar
@<TRIPOS>MOLECULE
*****
 13 14 0 0 0
SMALL
GASTEIGER

@<TRIPOS>ATOM
      1 C          63.8728   89.5915   15.2225 C.3     1  UNL1        0.0327
      2 C          64.5136   90.5081   14.2228 C.ar    1  UNL1       -0.0027
      3 C          65.7969   91.2071   14.5610 C.ar    1  UNL1       -0.0012
      4 C          66.4378   92.1236   13.5614 C.ar    1  UNL1        0.0189
      5 C          65.7952   92.3412   12.2235 C.ar    1  UNL1        0.0828
      6 N          64.5119   91.6422   11.8854 N.ar    1  UNL1       -0.2441
      7 C          63.8711   90.7256   12.8850 C.ar    1  UNL1        0.0945
      8 C          66.4361   93.2577   11.2239 C.ar    1  UNL1        0.0368
      9 C          67.3041   92.6941   10.1382 C.ar    1  UNL1        0.0046
     10 C          67.9449   93.6107    9.1385 C.ar    1  UNL1        0.0207
     11 C          67.7177   95.0908    9.2246 C.ar    1  UNL1        0.0989
     12 N          66.8497   95.6544   10.3103 N.ar    1  UNL1       -0.2423
     13 C          66.2089   94.7379   11.3100 C.ar    1  UNL1        0.1003
@<TRIPOS>BOND
     1     1     2    1
     2     2     3   ar
     3     3     4   ar
     4     4     5   ar
     5     5     8    1
     6     8     9   ar
     7     9    10   ar
     8    10    11   ar
     9    11    12   ar
    10    12    13   ar
    11     5     6   ar
    12     6     7   ar
    13     7     2   ar
    14    13     8   ar
@<TRIPOS>MOLECULE
*****
 13 14 0 0 0
SMALL
GASTEIGER

@<TRIPOS>ATOM
      1 C          61.8315   90.0862   10.3431 C.3     1  UNL1        0.0327
      2 C          62.9422   90.5535   11.2364 C.ar    1  UNL1       -0.0027
      3 C          63.1055   89.9588   12.6037 C.ar    1  UNL1       -0.0012
      4 C          64.2162   90.4260   13.4971 C.ar    1  UNL1        0.0189
      5 C          65.1636   91.4879   13.0231 C.ar    1  UNL1        0.0828
      6 N          65.0003   92.0826   11.6557 N.ar    1  UNL1       -0.2441
      7 C          63.8896   91.6154   10.7624 C.ar    1  UNL1        0.0945
      8 C          66.2743   91.9552   13.9164 C.ar    1  UNL1        0.0368
      9 C          65.9798   92.3593   15.3305 C.ar    1  UNL1        0.0046
     10 C          67.0905   92.8266   16.2239 C.ar    1  UNL1        0.0207
     11 C          68.4957   92.8896   15.7030 C.ar    1  UNL1        0.0989
     12 N          68.7903   92.4854   14.2889 N.ar    1  UNL1       -0.2423
     13 C          67.6796   92.0182   13.3956 C.ar    1  UNL1        0.1003
@<TRIPOS>BOND
     1     1     2    1
     2     2     3   ar
     3     3     4   ar
     4     4     5   ar
     5     5     8    1
     6     8     9   ar
     7     9    10   ar
     8    10    11   ar
     9    11    12   ar
    10    12    13   ar
    11     5     6   ar
    12     6     7   ar
    13     7     2   ar
    14    13     8   ar
@<TRIPOS>MOLECULE
*****
 13 14 0 0 0
SMALL
GASTEIGER

@<TRIPOS>ATOM
      1 C          64.7115   91.7260   13.2433 C.3     1  UNL1        0.0327
      2 C          63.9091   90.8384   12.3388 C.ar    1  UNL1       -0.0027
      3 C          63.5456   91.3044   10.9602 C.ar    1  UNL1       -0.0012
      4 C          62.7431   90.4168   10.0556 C.ar    1  UNL1        0.0189
      5 C          62.3042   89.0631   10.5297 C.ar    1  UNL1        0.0828
      6 N          62.6677   88.5970   11.9084 N.ar    1  UNL1       -0.2441
      7 C          63.4701   89.4847   12.8129 C.ar    1  UNL1        0.0945
      8 C          61.5017   88.1754    9.6252 C.ar    1  UNL1        0.0368
      9 C          62.0070   86.8069    9.2763 C.ar    1  UNL1        0.0046
     10 C          61.2045   85.9192    8.3717 C.ar    1  UNL1        0.0207
     11 C          59.8969   86.4001    7.8162 C.ar    1  UNL1        0.0989
     12 N          59.3916   87.7686    8.1652 N.ar    1  UNL1       -0.2423
     13 C          60.1941   88.6563    9.0697 C.ar    1  UNL1        0.1003
@<TRIPOS>BOND
     1     1     2    1
     2     2     3   ar
     3     3     4   ar
     4     4     5   ar
     5     5     8    1
     6     8     9   ar
     7     9    10   ar
     8    10    11   ar
     9    11    12   ar
    10    12    13   ar
    11     5     6   ar
    12     6     7   ar
    13     7     2   ar
    14    13     8   ar
@<TRIPOS>MOLECULE
*****
 13 14 0 0 0
SMALL
GASTEIGER

@<TRIPOS>ATOM
      1 C          59.7116   86.9603    8.5098 C.3     1  UNL1        0.0327
      2 C          60.6162   87.6647    9.4770 C.ar    1  UNL1       -0.0027
      3 C          60.8822   89.1328    9.3221 C.ar    1  UNL1       -0.0012
      4 C          61.7868   89.8372   10.2893 C.ar    1  UNL1        0.0189
      5 C          62.4254   89.0736   11.4113 C.ar    1  UNL1        0.0828
      6 N          62.1595   87.6056   11.5662 N.ar    1  UNL1       -0.2441
      7 C          61.2548   86.9011   10.5990 C.ar    1  UNL1        0.0945
      8 C          63.3301   89.7781   12.3785 C.ar    1  UNL1        0.0368
      9 C          63.8343   89.0585   13.5941 C.ar    1  UNL1        0.0046
     10 C          64.7389   89.7629   14.5613 C.ar    1  UNL1        0.0207
     11 C          65.1393   91.1870   14.3128 C.ar    1  UNL1        0.0989
     12 N          64.6350   91.9066   13.0972 N.ar    1  UNL1       -0.2423
     13 C          63.7304   91.2021   12.1300 C.ar    1  UNL1        0.1003
@<TRIPOS>BOND
     1     1     2    1
     2     2     3   ar
     3     3     4   ar
     4     4     5   ar
     5     5     8    1
     6     8     9   ar
     7     9    10   ar
     8    10    11   ar
     9    11    12   ar
    10    12    13   ar
    11     5     6   ar
    12     6     7   ar
    13     7     2   ar
    14    13     8   ar
@<TRIPOS>MOLECULE
*****
 13 14 0 0 0
SMALL
GASTEIGER

@<TRIPOS>ATOM
      1 C          64.5778   82.3300   11.8848 C.3     1  UNL1        0.0327
      2 C          63.7709   83.4253   11.2530 C.ar    1  UNL1       -0.0027
      3 C          62.8430   84.2528   12.0922 C.ar    1  UNL1       -0.0012
      4 C          62.0361   85.3482   11.4604 C.ar    1  UNL1        0.0189
      5 C          62.1570   85.6160    9.9895 C.ar    1  UNL1        0.0828
      6 N          63.0849   84.7885    9.1504 N.ar    1  UNL1       -0.2441
      7 C          63.8919   83.6932    9.7821 C.ar    1  UNL1        0.0945
      8 C          61.3501   86.7114    9.3578 C.ar    1  UNL1        0.0368
      9 C          60.2841   86.3761    8.3573 C.ar    1  UNL1        0.0046
     10 C          59.4771   87.4714    7.7255 C.ar    1  UNL1        0.0207
     11 C          59.7363   88.9021    8.0943 C.ar    1  UNL1        0.0989
     12 N          60.8024   89.2374    9.0947 N.ar    1  UNL1       -0.2423
     13 C          61.6093   88.1420    9.7265 C.ar    1  UNL1        0.1003
@<TRIPOS>BOND
     1     1     2    1
     2     2     3   ar
     3     3     4   ar
     4     4     5   ar
     5     5     8    1
     6     8     9   ar
     7     9    10   ar
     8    10    11   ar
     9    11    12   ar
    10    12    13   ar
    11     5     6   ar
    12     6     7   ar
    13     7     2   ar
    14    13     8   ar
@<TRIPOS>MOLECULE
*****
 13 14 0 0 0
SMALL
GASTEIGER

@<TRIPOS>ATOM
      1 C          62.9621   79.7992   10.0054 C.3     1  UNL1        0.0327
      2 C          63.0399   80.8498   11.0733 C.ar    1  UNL1       -0.0027
      3 C          62.6080   80.5293   12.4735 C.ar    1  UNL1       -0.0012
      4 C          62.6858   81.5799   13.5414 C.ar    1  UNL1        0.0189
      5 C          63.1955   82.9509   13.2090 C.ar    1  UNL1        0.0828
      6 N          63.6274   83.2713   11.8087 N.ar    1  UNL1       -0.2441
      7 C          63.5496   82.2208   10.7409 C.ar    1  UNL1        0.0945
      8 C          63.2734   84.0014   14.2768 C.ar    1  UNL1        0.0368
      9 C          64.4210   84.9671   14.2967 C.ar    1  UNL1        0.0046
     10 C          64.4988   86.0176   15.3645 C.ar    1  UNL1        0.0207
     11 C          63.4290   86.1025   16.4125 C.ar    1  UNL1        0.0989
     12 N          62.2814   85.1368   16.3926 N.ar    1  UNL1       -0.2423
     13 C          62.2036   84.0863   15.3248 C.ar    1  UNL1        0.1003
@<TRIPOS>BOND
     1     1     2    1
     2     2     3   ar
     3     3     4   ar
     4     4     5   ar
     5     5     8    1
     6     8     9   ar
     7     9    10   ar
     8    10    11   ar
     9    11    12   ar
    10    12    13   ar
    11     5     6   ar
    12     6     7   ar
    13     7     2   ar
    14    13     8   ar
