@<TRIPOS>MOLECULE
*****
 31 34 0 0 0
SMALL
GASTEIGER

@<TRIPOS>ATOM
      1 C          63.8204   89.4868   13.1419 C.ar    1  UNL1        0.0957
      2 C          63.8917   89.3892   14.6370 C.ar    1  UNL1        0.1191
      3 N          64.5845   90.4601   15.4264 N.ar    1  UNL1       -0.2223
      4 C          65.2063   91.6286   14.7207 C.ar    1  UNL1        0.1784
      5 N          65.9501   92.8280   15.2286 N.ar    1  UNL1       -0.2236
      6 C          66.3386   93.6670   14.0474 C.ar    1  UNL1        0.1066
      7 C          65.8349   92.9860   12.8095 C.ar    1  UNL1        0.0910
      8 C          65.1351   91.7262   13.2256 C.ar    1  UNL1        0.0988
      9 N          64.4422   90.6554   12.4362 N.ar    1  UNL1       -0.3481
     10 H          64.3955   90.7194   11.4549 H       1  UNL1        0.1661
     11 C          62.2105   84.7604   11.4243 C.3     1  UNL1        0.1537
     12 N          62.3876   86.2435   11.5630 N.ar    1  UNL1       -0.2488
     13 N          63.2482   86.9377   12.5766 N.ar    1  UNL1       -0.1677
     14 C          63.1275   88.4159   12.3525 C.ar    1  UNL1        0.1193
     15 C          62.1923   88.6353   11.2005 C.ar    1  UNL1        0.0381
     16 C          61.6981   89.8842   10.5327 C.ar    1  UNL1        0.0040
     17 C          60.7466   89.7905    9.3770 C.ar    1  UNL1        0.0115
     18 C          60.2893   88.4478    8.8890 C.ar    1  UNL1        0.0592
     19 CL         59.3377   88.3541    7.7333 Cl      1  UNL1       -0.0822
     20 C          60.7835   87.1989    9.5568 C.ar    1  UNL1        0.0302
     21 C          61.7350   87.2927   10.7125 C.ar    1  UNL1        0.0803
     22 C          66.0018   93.4784   11.4024 C.2     1  UNL1        0.2488
     23 O          65.1155   92.9510   10.3132 O.2     1  UNL1       -0.2700
     24 N          67.0549   94.4982   11.0846 N.am    1  UNL1       -0.3015
     25 H          67.6365   94.8443   11.7994 H       1  UNL1        0.1497
     26 C          67.2217   94.9905    9.6776 C.3     1  UNL1        0.0841
     27 C          68.1424   93.8431    9.3852 C.3     1  UNL1        0.0222
     28 C          66.3009   96.1380    9.9699 C.3     1  UNL1        0.0222
     29 C          67.3885   95.4829    8.2705 C.3     1  UNL1        0.1549
     30 O          67.9705   96.8416    8.0154 O.3     1  UNL1       -0.3803
     31 H          67.3667   97.5208    8.3545 H       1  UNL1        0.2105
@<TRIPOS>BOND
     1    11    12    1
     2    12    13   ar
     3    13    14   ar
     4    14     1    1
     5     1     2   ar
     6     2     3   ar
     7     3     4   ar
     8     4     5   ar
     9     5     6   ar
    10     6     7   ar
    11     7    22    1
    12    22    23    2
    13    22    24   am
    14    24    26    1
    15    26    27    1
    16    26    28    1
    17    26    29    1
    18    29    30    1
    19     7     8   ar
    20     8     9   ar
    21    14    15   ar
    22    15    16   ar
    23    16    17   ar
    24    17    18   ar
    25    18    19    1
    26    18    20   ar
    27    20    21   ar
    28    21    12   ar
    29     9     1   ar
    30    21    15   ar
    31     8     4    1
    32    24    25    1
    33    30    31    1
    34     9    10    1
@<TRIPOS>MOLECULE
*****
 31 34 0 0 0
SMALL
GASTEIGER

@<TRIPOS>ATOM
      1 C          63.6942   89.7339   12.9095 C.ar    1  UNL1        0.0957
      2 C          63.8136   89.5494   14.3932 C.ar    1  UNL1        0.1191
      3 N          64.5796   90.5445   15.2136 N.ar    1  UNL1       -0.2223
      4 C          65.2263   91.7242   14.5502 C.ar    1  UNL1        0.1784
      5 N          66.0388   92.8613   15.0949 N.ar    1  UNL1       -0.2236
      6 C          66.4217   93.7486   13.9478 C.ar    1  UNL1        0.1066
      7 C          65.8458   93.1600   12.6941 C.ar    1  UNL1        0.0910
      8 C          65.1070   91.9088   13.0664 C.ar    1  UNL1        0.0988
      9 N          64.3410   90.9137   12.2460 N.ar    1  UNL1       -0.3481
     10 H          64.2626   91.0349   11.2722 H       1  UNL1        0.1661
     11 C          60.4614   87.6214    9.3086 C.3     1  UNL1        0.1537
     12 N          61.4423   87.7678   10.4340 N.ar    1  UNL1       -0.2488
     13 N          61.9809   89.0605   10.9715 N.ar    1  UNL1       -0.1677
     14 C          62.9282   88.7389   12.0891 C.ar    1  UNL1        0.1193
     15 C          62.9751   87.2474   12.2423 C.ar    1  UNL1        0.0381
     16 C          63.7354   86.3583   13.1811 C.ar    1  UNL1        0.0040
     17 C          63.5774   84.8691   13.0969 C.ar    1  UNL1        0.0115
     18 C          62.6590   84.2690   12.0740 C.ar    1  UNL1        0.0592
     19 CL         62.5009   82.7796   11.9899 Cl      1  UNL1       -0.0822
     20 C          61.8987   85.1581   11.1352 C.ar    1  UNL1        0.0302
     21 C          62.0567   86.6473   11.2193 C.ar    1  UNL1        0.0803
     22 C          65.9844   93.7236   11.3109 C.2     1  UNL1        0.2488
     23 O          65.1547   93.1718   10.1896 O.2     1  UNL1       -0.2700
     24 N          66.9526   94.8388   11.0490 N.am    1  UNL1       -0.3015
     25 H          67.4971   95.2010   11.7849 H       1  UNL1        0.1497
     26 C          67.0911   95.4024    9.6658 C.3     1  UNL1        0.0841
     27 C          68.0462   94.3010    9.3127 C.3     1  UNL1        0.0222
     28 C          66.1359   96.5038   10.0189 C.3     1  UNL1        0.0222
     29 C          67.2297   95.9659    8.2826 C.3     1  UNL1        0.1549
     30 O          66.0336   96.0426    7.3807 O.3     1  UNL1       -0.3803
     31 H          65.7359   95.1458    7.1615 H       1  UNL1        0.2105
@<TRIPOS>BOND
     1    11    12    1
     2    12    13   ar
     3    13    14   ar
     4    14     1    1
     5     1     2   ar
     6     2     3   ar
     7     3     4   ar
     8     4     5   ar
     9     5     6   ar
    10     6     7   ar
    11     7    22    1
    12    22    23    2
    13    22    24   am
    14    24    26    1
    15    26    27    1
    16    26    28    1
    17    26    29    1
    18    29    30    1
    19     7     8   ar
    20     8     9   ar
    21    14    15   ar
    22    15    16   ar
    23    16    17   ar
    24    17    18   ar
    25    18    19    1
    26    18    20   ar
    27    20    21   ar
    28    21    12   ar
    29     9     1   ar
    30    21    15   ar
    31     8     4    1
    32    24    25    1
    33    30    31    1
    34     9    10    1
@<TRIPOS>MOLECULE
*****
 31 34 0 0 0
SMALL
GASTEIGER

@<TRIPOS>ATOM
      1 C          63.5536   89.3825   13.4974 C.ar    1  UNL1        0.0957
      2 C          63.0022   89.5225   14.8852 C.ar    1  UNL1        0.1191
      3 N          63.5657   90.5554   15.8156 N.ar    1  UNL1       -0.2223
      4 C          64.6808   91.4483   15.3581 C.ar    1  UNL1        0.1784
      5 N          65.4321   92.5490   16.0466 N.ar    1  UNL1       -0.2236
      6 C          66.4479   93.0893   15.0843 C.ar    1  UNL1        0.1066
      7 C          66.3245   92.3225   13.8010 C.ar    1  UNL1        0.0910
      8 C          65.2323   91.3083   13.9703 C.ar    1  UNL1        0.0988
      9 N          64.6688   90.2754   13.0399 N.ar    1  UNL1       -0.3481
     10 H          65.0308   90.1836   12.1290 H       1  UNL1        0.1661
     11 C          62.3983   84.7485   11.2453 C.3     1  UNL1        0.1537
     12 N          62.4591   86.2196   11.5319 N.ar    1  UNL1       -0.2488
     13 N          63.2028   86.8678   12.6618 N.ar    1  UNL1       -0.1677
     14 C          62.9901   88.3496   12.5670 C.ar    1  UNL1        0.1193
     15 C          62.1149   88.6173   11.3786 C.ar    1  UNL1        0.0381
     16 C          61.5745   89.8896   10.7963 C.ar    1  UNL1        0.0040
     17 C          60.7058   89.8455    9.5743 C.ar    1  UNL1        0.0115
     18 C          60.3776   88.5291    8.9345 C.ar    1  UNL1        0.0592
     19 CL         59.5089   88.4850    7.7124 Cl      1  UNL1       -0.0822
     20 C          60.9181   87.2567    9.5167 C.ar    1  UNL1        0.0302
     21 C          61.7867   87.3008   10.7388 C.ar    1  UNL1        0.0803
     22 C          67.1486   92.5329   12.5654 C.2     1  UNL1        0.2488
     23 O          68.5879   92.1114   12.5431 O.2     1  UNL1       -0.2700
     24 N          66.5333   93.1649   11.3522 N.am    1  UNL1       -0.3015
     25 H          65.5885   93.4415   11.3668 H       1  UNL1        0.1497
     26 C          67.3573   93.3753   10.1167 C.3     1  UNL1        0.0841
     27 C          67.1031   94.8513   10.1985 C.3     1  UNL1        0.0222
     28 C          67.6116   91.8992   10.0348 C.3     1  UNL1        0.0222
     29 C          68.1815   93.5858    8.8811 C.3     1  UNL1        0.1549
     30 O          68.7198   92.4052    8.1285 O.3     1  UNL1       -0.3803
     31 H          69.3686   91.9393    8.6790 H       1  UNL1        0.2105
@<TRIPOS>BOND
     1    11    12    1
     2    12    13   ar
     3    13    14   ar
     4    14     1    1
     5     1     2   ar
     6     2     3   ar
     7     3     4   ar
     8     4     5   ar
     9     5     6   ar
    10     6     7   ar
    11     7    22    1
    12    22    23    2
    13    22    24   am
    14    24    26    1
    15    26    27    1
    16    26    28    1
    17    26    29    1
    18    29    30    1
    19     7     8   ar
    20     8     9   ar
    21    14    15   ar
    22    15    16   ar
    23    16    17   ar
    24    17    18   ar
    25    18    19    1
    26    18    20   ar
    27    20    21   ar
    28    21    12   ar
    29     9     1   ar
    30    21    15   ar
    31     8     4    1
    32    24    25    1
    33    30    31    1
    34     9    10    1
@<TRIPOS>MOLECULE
*****
 31 34 0 0 0
SMALL
GASTEIGER

@<TRIPOS>ATOM
      1 C          63.1357   90.5446   10.8048 C.ar    1  UNL1        0.0957
      2 C          62.1222   90.9153    9.7631 C.ar    1  UNL1        0.1191
      3 N          61.1248   89.8988    9.2917 N.ar    1  UNL1       -0.2223
      4 C          61.1411   88.5116    9.8621 C.ar    1  UNL1        0.1784
      5 N          60.2892   87.3063    9.5946 N.ar    1  UNL1       -0.2236
      6 C          60.7763   86.1907   10.4710 C.ar    1  UNL1        0.1066
      7 C          61.9292   86.7064   11.2802 C.ar    1  UNL1        0.0910
      8 C          62.1547   88.1408   10.9039 C.ar    1  UNL1        0.0988
      9 N          63.1520   89.1573   11.3752 N.ar    1  UNL1       -0.3481
     10 H          63.8172   88.9140   12.0589 H       1  UNL1        0.1661
     11 C          66.5135   94.6022   10.8888 C.3     1  UNL1        0.1537
     12 N          65.6856   93.4261   11.3147 N.ar    1  UNL1       -0.2488
     13 N          64.7482   92.6454   10.4420 N.ar    1  UNL1       -0.1677
     14 C          64.1330   91.5611   11.2761 C.ar    1  UNL1        0.1193
     15 C          64.6903   91.6716   12.6644 C.ar    1  UNL1        0.0381
     16 C          64.4479   90.8716   13.9098 C.ar    1  UNL1        0.0040
     17 C          65.1651   91.2243   15.1791 C.ar    1  UNL1        0.0115
     18 C          66.1247   92.3770   15.2030 C.ar    1  UNL1        0.0592
     19 CL         66.8419   92.7296   16.4724 Cl      1  UNL1       -0.0822
     20 C          66.3670   93.1770   13.9575 C.ar    1  UNL1        0.0302
     21 C          65.6498   92.8243   12.6882 C.ar    1  UNL1        0.0803
     22 C          62.7182   85.9250   12.2886 C.2     1  UNL1        0.2488
     23 O          63.6425   86.6360   13.2320 O.2     1  UNL1       -0.2700
     24 N          62.5827   84.4325   12.3537 N.am    1  UNL1       -0.3015
     25 H          61.9760   83.9659   11.7345 H       1  UNL1        0.1497
     26 C          63.3716   83.6511   13.3621 C.3     1  UNL1        0.0841
     27 C          62.3463   83.9682   14.4099 C.3     1  UNL1        0.0222
     28 C          64.3971   83.3340   12.3142 C.3     1  UNL1        0.0222
     29 C          64.1606   82.8697   14.3706 C.3     1  UNL1        0.1549
     30 O          64.6881   83.5488   15.5996 O.3     1  UNL1       -0.3803
     31 H          65.3551   84.2054   15.3451 H       1  UNL1        0.2105
@<TRIPOS>BOND
     1    11    12    1
     2    12    13   ar
     3    13    14   ar
     4    14     1    1
     5     1     2   ar
     6     2     3   ar
     7     3     4   ar
     8     4     5   ar
     9     5     6   ar
    10     6     7   ar
    11     7    22    1
    12    22    23    2
    13    22    24   am
    14    24    26    1
    15    26    27    1
    16    26    28    1
    17    26    29    1
    18    29    30    1
    19     7     8   ar
    20     8     9   ar
    21    14    15   ar
    22    15    16   ar
    23    16    17   ar
    24    17    18   ar
    25    18    19    1
    26    18    20   ar
    27    20    21   ar
    28    21    12   ar
    29     9     1   ar
    30    21    15   ar
    31     8     4    1
    32    24    25    1
    33    30    31    1
    34     9    10    1
@<TRIPOS>MOLECULE
*****
 31 34 0 0 0
SMALL
GASTEIGER

@<TRIPOS>ATOM
      1 C          62.4500   89.3566   11.9956 C.ar    1  UNL1        0.0957
      2 C          61.6194   90.2054   11.0794 C.ar    1  UNL1        0.1191
      3 N          61.0048   89.6032    9.8508 N.ar    1  UNL1       -0.2223
      4 C          61.2207   88.1521    9.5383 C.ar    1  UNL1        0.1784
      5 N          60.7451   87.2870    8.4090 N.ar    1  UNL1       -0.2236
      6 C          61.2817   85.9034    8.6272 C.ar    1  UNL1        0.1066
      7 C          62.0889   85.9134    9.8915 C.ar    1  UNL1        0.0910
      8 C          62.0512   87.3032   10.4545 C.ar    1  UNL1        0.0988
      9 N          62.6659   87.9054   11.6832 N.ar    1  UNL1       -0.3481
     10 H          63.2110   87.3482   12.2845 H       1  UNL1        0.1661
     11 C          63.5478   90.4428   17.0449 C.3     1  UNL1        0.1537
     12 N          63.5692   90.4580   15.5451 N.ar    1  UNL1       -0.2488
     13 N          62.7119   89.6212   14.6426 N.ar    1  UNL1       -0.1677
     14 C          63.0646   89.9587   13.2243 C.ar    1  UNL1        0.1193
     15 C          64.1400   91.0042   13.2503 C.ar    1  UNL1        0.0381
     16 C          64.8755   91.7150   12.1531 C.ar    1  UNL1        0.0040
     17 C          65.9228   92.7344   12.4904 C.ar    1  UNL1        0.0115
     18 C          66.2347   93.0430   13.9248 C.ar    1  UNL1        0.0592
     19 CL         67.2821   94.0625   14.2621 Cl      1  UNL1       -0.0822
     20 C          65.4992   92.3322   15.0220 C.ar    1  UNL1        0.0302
     21 C          64.4518   91.3128   14.6847 C.ar    1  UNL1        0.0803
     22 C          62.8077   84.7396   10.4879 C.2     1  UNL1        0.2488
     23 O          63.7377   83.9210    9.6423 O.2     1  UNL1       -0.2700
     24 N          62.5965   84.3845   11.9298 N.am    1  UNL1       -0.3015
     25 H          61.9861   84.9218   12.4848 H       1  UNL1        0.1497
     26 C          63.3153   83.2108   12.5262 C.3     1  UNL1        0.0841
     27 C          64.3539   84.1338   13.0911 C.3     1  UNL1        0.0222
     28 C          62.2766   82.2876   11.9613 C.3     1  UNL1        0.0222
     29 C          64.0341   82.0370   13.1226 C.3     1  UNL1        0.1549
     30 O          63.4064   81.2642   14.2446 O.3     1  UNL1       -0.3803
     31 H          63.3403   81.8301   15.0296 H       1  UNL1        0.2105
@<TRIPOS>BOND
     1    11    12    1
     2    12    13   ar
     3    13    14   ar
     4    14     1    1
     5     1     2   ar
     6     2     3   ar
     7     3     4   ar
     8     4     5   ar
     9     5     6   ar
    10     6     7   ar
    11     7    22    1
    12    22    23    2
    13    22    24   am
    14    24    26    1
    15    26    27    1
    16    26    28    1
    17    26    29    1
    18    29    30    1
    19     7     8   ar
    20     8     9   ar
    21    14    15   ar
    22    15    16   ar
    23    16    17   ar
    24    17    18   ar
    25    18    19    1
    26    18    20   ar
    27    20    21   ar
    28    21    12   ar
    29     9     1   ar
    30    21    15   ar
    31     8     4    1
    32    24    25    1
    33    30    31    1
    34     9    10    1
@<TRIPOS>MOLECULE
*****
 31 34 0 0 0
SMALL
GASTEIGER

@<TRIPOS>ATOM
      1 C          63.7908   89.1856   13.8158 C.ar    1  UNL1        0.0957
      2 C          63.2299   89.4117   15.1884 C.ar    1  UNL1        0.1191
      3 N          63.7107   90.5679   16.0142 N.ar    1  UNL1       -0.2223
      4 C          64.7525   91.4982   15.4673 C.ar    1  UNL1        0.1784
      5 N          65.4152   92.7137   16.0445 N.ar    1  UNL1       -0.2236
      6 C          66.3858   93.2390   15.0286 C.ar    1  UNL1        0.1066
      7 C          66.3229   92.3481   13.8235 C.ar    1  UNL1        0.0910
      8 C          65.3135   91.2722   14.0946 C.ar    1  UNL1        0.0988
      9 N          64.8327   90.1160   13.2689 N.ar    1  UNL1       -0.3481
     10 H          65.2009   89.9677   12.3679 H       1  UNL1        0.1661
     11 C          61.4421   86.3509   10.0305 C.3     1  UNL1        0.1537
     12 N          62.2304   86.7264   11.2502 N.ar    1  UNL1       -0.2488
     13 N          62.4777   88.1205   11.7455 N.ar    1  UNL1       -0.1677
     14 C          63.3100   88.0294   12.9901 C.ar    1  UNL1        0.1193
     15 C          63.5770   86.5789   13.2640 C.ar    1  UNL1        0.0381
     16 C          64.3414   85.8875   14.3537 C.ar    1  UNL1        0.0040
     17 C          64.4387   84.3908   14.3681 C.ar    1  UNL1        0.0115
     18 C          63.7715   83.5855   13.2927 C.ar    1  UNL1        0.0592
     19 CL         63.8688   82.0886   13.3071 Cl      1  UNL1       -0.0822
     20 C          63.0070   84.2769   12.2031 C.ar    1  UNL1        0.0302
     21 C          62.9098   85.7737   12.1887 C.ar    1  UNL1        0.0803
     22 C          67.1282   92.5055   12.5677 C.2     1  UNL1        0.2488
     23 O          68.5380   91.9962   12.5120 O.2     1  UNL1       -0.2700
     24 N          66.5236   93.1721   11.3677 N.am    1  UNL1       -0.3015
     25 H          65.5983   93.5063   11.4043 H       1  UNL1        0.1497
     26 C          67.3288   93.3294   10.1120 C.3     1  UNL1        0.0841
     27 C          67.1268   94.8146   10.1686 C.3     1  UNL1        0.0222
     28 C          67.5309   91.8441   10.0554 C.3     1  UNL1        0.0222
     29 C          68.1341   93.4868    8.8563 C.3     1  UNL1        0.1549
     30 O          68.7198   92.2802    8.1847 O.3     1  UNL1       -0.3803
     31 H          69.3926   91.8844    8.7605 H       1  UNL1        0.2105
@<TRIPOS>BOND
     1    11    12    1
     2    12    13   ar
     3    13    14   ar
     4    14     1    1
     5     1     2   ar
     6     2     3   ar
     7     3     4   ar
     8     4     5   ar
     9     5     6   ar
    10     6     7   ar
    11     7    22    1
    12    22    23    2
    13    22    24   am
    14    24    26    1
    15    26    27    1
    16    26    28    1
    17    26    29    1
    18    29    30    1
    19     7     8   ar
    20     8     9   ar
    21    14    15   ar
    22    15    16   ar
    23    16    17   ar
    24    17    18   ar
    25    18    19    1
    26    18    20   ar
    27    20    21   ar
    28    21    12   ar
    29     9     1   ar
    30    21    15   ar
    31     8     4    1
    32    24    25    1
    33    30    31    1
    34     9    10    1
@<TRIPOS>MOLECULE
*****
 31 34 0 0 0
SMALL
GASTEIGER

@<TRIPOS>ATOM
      1 C          63.1305   90.0013   13.0793 C.ar    1  UNL1        0.0957
      2 C          63.6808   89.3888   14.3331 C.ar    1  UNL1        0.1191
      3 N          64.9738   89.8879   14.9067 N.ar    1  UNL1       -0.2223
      4 C          65.7166   90.9995   14.2266 C.ar    1  UNL1        0.1784
      5 N          67.0044   91.6947   14.5555 N.ar    1  UNL1       -0.2236
      6 C          67.2501   92.7369   13.5051 C.ar    1  UNL1        0.1066
      7 C          66.1140   92.6858   12.5269 C.ar    1  UNL1        0.0910
      8 C          65.1663   91.6121   12.9728 C.ar    1  UNL1        0.0988
      9 N          63.8733   91.1130   12.3992 N.ar    1  UNL1       -0.3481
     10 H          63.5121   91.5151   11.5763 H       1  UNL1        0.1661
     11 C          57.9809   89.0952   12.3436 C.3     1  UNL1        0.1537
     12 N          59.4705   89.0858   12.1675 N.ar    1  UNL1       -0.2488
     13 N          60.4670   89.7777   13.0497 N.ar    1  UNL1       -0.1677
     14 C          61.8375   89.5022   12.5057 C.ar    1  UNL1        0.1193
     15 C          61.6880   88.6401   11.2873 C.ar    1  UNL1        0.0381
     16 C          62.6949   88.0562   10.3413 C.ar    1  UNL1        0.0040
     17 C          62.2390   87.2149    9.1862 C.ar    1  UNL1        0.0115
     18 C          60.7761   86.9575    8.9772 C.ar    1  UNL1        0.0592
     19 CL         60.3202   86.1161    7.8220 Cl      1  UNL1       -0.0822
     20 C          59.7692   87.5414    9.9233 C.ar    1  UNL1        0.0302
     21 C          60.2251   88.3827   11.0783 C.ar    1  UNL1        0.0803
     22 C          65.9539   93.5558   11.3154 C.2     1  UNL1        0.2488
     23 O          64.9100   93.2280   10.2894 O.2     1  UNL1       -0.2700
     24 N          66.8376   94.7535   11.1301 N.am    1  UNL1       -0.3015
     25 H          67.5228   94.9687   11.8035 H       1  UNL1        0.1497
     26 C          66.6775   95.6234    9.9187 C.3     1  UNL1        0.0841
     27 C          65.7122   96.4918   10.6698 C.3     1  UNL1        0.0222
     28 C          67.6427   94.7551    9.1674 C.3     1  UNL1        0.0222
     29 C          66.5172   96.4934    8.7072 C.3     1  UNL1        0.1549
     30 O          66.0709   95.8936    7.4068 O.3     1  UNL1       -0.3803
     31 H          66.7522   95.2851    7.0807 H       1  UNL1        0.2105
@<TRIPOS>BOND
     1    11    12    1
     2    12    13   ar
     3    13    14   ar
     4    14     1    1
     5     1     2   ar
     6     2     3   ar
     7     3     4   ar
     8     4     5   ar
     9     5     6   ar
    10     6     7   ar
    11     7    22    1
    12    22    23    2
    13    22    24   am
    14    24    26    1
    15    26    27    1
    16    26    28    1
    17    26    29    1
    18    29    30    1
    19     7     8   ar
    20     8     9   ar
    21    14    15   ar
    22    15    16   ar
    23    16    17   ar
    24    17    18   ar
    25    18    19    1
    26    18    20   ar
    27    20    21   ar
    28    21    12   ar
    29     9     1   ar
    30    21    15   ar
    31     8     4    1
    32    24    25    1
    33    30    31    1
    34     9    10    1
@<TRIPOS>MOLECULE
*****
 31 34 0 0 0
SMALL
GASTEIGER

@<TRIPOS>ATOM
      1 C          62.1188   89.0633   10.9433 C.ar    1  UNL1        0.0957
      2 C          62.3090   90.5324   11.1785 C.ar    1  UNL1        0.1191
      3 N          63.0911   91.0066   12.3674 N.ar    1  UNL1       -0.2223
      4 C          63.6830   90.0116   13.3212 C.ar    1  UNL1        0.1784
      5 N          64.4961   90.1796   14.5704 N.ar    1  UNL1       -0.2236
      6 C          64.8085   88.8143   15.1073 C.ar    1  UNL1        0.1066
      7 C          64.1884   87.8024   14.1898 C.ar    1  UNL1        0.0910
      8 C          63.4928   88.5424   13.0860 C.ar    1  UNL1        0.0988
      9 N          62.7107   88.0682   11.8971 N.ar    1  UNL1       -0.3481
     10 H          62.5859   87.1039   11.7427 H       1  UNL1        0.1661
     11 C          58.5319   88.7835    7.0786 C.3     1  UNL1        0.1537
     12 N          59.6880   88.4605    7.9780 N.ar    1  UNL1       -0.2488
     13 N          60.1566   89.2831    9.1415 N.ar    1  UNL1       -0.1677
     14 C          61.3367   88.5891    9.7544 C.ar    1  UNL1        0.1193
     15 C          61.5976   87.3377    8.9696 C.ar    1  UNL1        0.0381
     16 C          62.6313   86.2603    9.1128 C.ar    1  UNL1        0.0040
     17 C          62.6461   85.1034    8.1582 C.ar    1  UNL1        0.0115
     18 C          61.6271   85.0240    7.0603 C.ar    1  UNL1        0.0592
     19 CL         61.6419   83.8670    6.1056 Cl      1  UNL1       -0.0822
     20 C          60.5934   86.1013    6.9170 C.ar    1  UNL1        0.0302
     21 C          60.5786   87.2582    7.8717 C.ar    1  UNL1        0.0803
     22 C          64.2527   86.3122   14.3485 C.2     1  UNL1        0.2488
     23 O          65.4368   85.6795   15.0175 O.2     1  UNL1       -0.2700
     24 N          63.1328   85.4546   13.8380 N.am    1  UNL1       -0.3015
     25 H          62.3557   85.8698   13.3989 H       1  UNL1        0.1497
     26 C          63.1971   83.9645   13.9967 C.3     1  UNL1        0.0841
     27 C          62.4932   84.0746   15.3166 C.3     1  UNL1        0.0222
     28 C          63.9011   83.8543   12.6767 C.3     1  UNL1        0.0222
     29 C          63.2614   82.4742   14.1554 C.3     1  UNL1        0.1549
     30 O          62.1666   81.7493   14.8806 O.3     1  UNL1       -0.3803
     31 H          62.1680   82.0122   15.8143 H       1  UNL1        0.2105
@<TRIPOS>BOND
     1    11    12    1
     2    12    13   ar
     3    13    14   ar
     4    14     1    1
     5     1     2   ar
     6     2     3   ar
     7     3     4   ar
     8     4     5   ar
     9     5     6   ar
    10     6     7   ar
    11     7    22    1
    12    22    23    2
    13    22    24   am
    14    24    26    1
    15    26    27    1
    16    26    28    1
    17    26    29    1
    18    29    30    1
    19     7     8   ar
    20     8     9   ar
    21    14    15   ar
    22    15    16   ar
    23    16    17   ar
    24    17    18   ar
    25    18    19    1
    26    18    20   ar
    27    20    21   ar
    28    21    12   ar
    29     9     1   ar
    30    21    15   ar
    31     8     4    1
    32    24    25    1
    33    30    31    1
    34     9    10    1
@<TRIPOS>MOLECULE
*****
 31 34 0 0 0
SMALL
GASTEIGER

@<TRIPOS>ATOM
      1 C          62.9488   89.8565   11.4027 C.ar    1  UNL1        0.0957
      2 C          62.1266   90.4480   10.2964 C.ar    1  UNL1        0.1191
      3 N          61.2470   89.5655    9.4612 N.ar    1  UNL1       -0.2223
      4 C          61.1897   88.0913    9.7323 C.ar    1  UNL1        0.1784
      5 N          60.4212   86.9801    9.0807 N.ar    1  UNL1       -0.2236
      6 C          60.7685   85.7017    9.7842 C.ar    1  UNL1        0.1066
      7 C          61.7516   86.0228   10.8707 C.ar    1  UNL1        0.0910
      8 C          62.0119   87.4997   10.8386 C.ar    1  UNL1        0.0988
      9 N          62.8915   88.3822   11.6738 N.ar    1  UNL1       -0.3481
     10 H          63.4312   87.9939   12.3999 H       1  UNL1        0.1661
     11 C          65.6011   91.8709   15.4999 C.3     1  UNL1        0.1537
     12 N          65.0475   91.6649   14.1211 N.ar    1  UNL1       -0.2488
     13 N          64.1279   90.5585   13.6965 N.ar    1  UNL1       -0.1677
     14 C          63.8284   90.7390   12.2379 C.ar    1  UNL1        0.1193
     15 C          64.5627   91.9569   11.7610 C.ar    1  UNL1        0.0381
     16 C          64.6427   92.6187   10.4173 C.ar    1  UNL1        0.0040
     17 C          65.4761   93.8528   10.2376 C.ar    1  UNL1        0.0115
     18 C          66.2296   94.4251   11.4015 C.ar    1  UNL1        0.0592
     19 CL         67.0630   95.6593   11.2217 Cl      1  UNL1       -0.0822
     20 C          66.1496   93.7633   12.7452 C.ar    1  UNL1        0.0302
     21 C          65.3162   92.5292   12.9249 C.ar    1  UNL1        0.0803
     22 C          62.3665   85.0396   11.8222 C.2     1  UNL1        0.2488
     23 O          62.4206   85.3487   13.2890 O.2     1  UNL1       -0.2700
     24 N          62.9272   83.7473   11.3069 N.am    1  UNL1       -0.3015
     25 H          62.8917   83.5444   10.3442 H       1  UNL1        0.1497
     26 C          63.5420   82.7642   12.2584 C.3     1  UNL1        0.0841
     27 C          64.7248   83.6704   12.4305 C.3     1  UNL1        0.0222
     28 C          62.3591   81.8578   12.0864 C.3     1  UNL1        0.0222
     29 C          64.1569   81.7810   13.2100 C.3     1  UNL1        0.1549
     30 O          63.7428   81.7731   14.6517 O.3     1  UNL1       -0.3803
     31 H          64.0206   82.6018   15.0724 H       1  UNL1        0.2105
@<TRIPOS>BOND
     1    11    12    1
     2    12    13   ar
     3    13    14   ar
     4    14     1    1
     5     1     2   ar
     6     2     3   ar
     7     3     4   ar
     8     4     5   ar
     9     5     6   ar
    10     6     7   ar
    11     7    22    1
    12    22    23    2
    13    22    24   am
    14    24    26    1
    15    26    27    1
    16    26    28    1
    17    26    29    1
    18    29    30    1
    19     7     8   ar
    20     8     9   ar
    21    14    15   ar
    22    15    16   ar
    23    16    17   ar
    24    17    18   ar
    25    18    19    1
    26    18    20   ar
    27    20    21   ar
    28    21    12   ar
    29     9     1   ar
    30    21    15   ar
    31     8     4    1
    32    24    25    1
    33    30    31    1
    34     9    10    1
