@<TRIPOS>MOLECULE
*****
 13 13 0 0 0
SMALL
GASTEIGER

@<TRIPOS>ATOM
      1 C          65.0469   90.9299   13.9191 C.ar    1  UNL1        0.0505
      2 C          64.3873   91.4150   12.6623 C.ar    1  UNL1        0.0178
      3 C          65.0187   92.5138   11.8598 C.ar    1  UNL1        0.0379
      4 C          66.3098   93.1275   12.3141 C.ar    1  UNL1        0.1338
      5 O          66.9412   94.2263   11.5116 O.3     1  UNL1       -0.5055
      6 C          66.9694   92.6424   13.5709 C.ar    1  UNL1        0.0379
      7 C          66.3380   91.5436   14.3734 C.ar    1  UNL1        0.0178
      8 H          66.5292   94.5293   10.7266 H       1  UNL1        0.2922
      9 C          62.9998   89.0616   16.7596 C.3     1  UNL1        0.0949
     10 C          63.6312   90.1603   15.9571 C.2     1  UNL1        0.2266
     11 O          63.4784   91.5883   16.3902 O.2     1  UNL1       -0.2748
     12 N          64.4154   89.8312   14.7216 N.am    1  UNL1       -0.2839
     13 H          64.5157   88.8939   14.4373 H       1  UNL1        0.1549
@<TRIPOS>BOND
     1     9    10    1
     2    10    11    2
     3    10    12   am
     4    12     1    1
     5     1     2   ar
     6     2     3   ar
     7     3     4   ar
     8     4     5    1
     9     4     6   ar
    10     6     7   ar
    11     7     1   ar
    12    12    13    1
    13     5     8    1
@<TRIPOS>MOLECULE
*****
 13 13 0 0 0
SMALL
GASTEIGER

@<TRIPOS>ATOM
      1 C          64.0483   86.3393   15.5749 C.ar    1  UNL1        0.0505
      2 C          64.4605   87.4662   14.6748 C.ar    1  UNL1        0.0178
      3 C          64.1247   88.8811   15.0427 C.ar    1  UNL1        0.0379
      4 C          63.3768   89.1691   16.3106 C.ar    1  UNL1        0.1338
      5 O          63.0410   90.5840   16.6785 O.3     1  UNL1       -0.5055
      6 C          62.9646   88.0421   17.2107 C.ar    1  UNL1        0.0379
      7 C          63.3004   86.6272   16.8428 C.ar    1  UNL1        0.0178
      8 H          63.2984   91.2879   16.1163 H       1  UNL1        0.2922
      9 C          63.8885   82.7806   13.8255 C.3     1  UNL1        0.0949
     10 C          63.5527   84.1955   14.1934 C.2     1  UNL1        0.2266
     11 O          62.3854   84.8815   13.5476 O.2     1  UNL1       -0.2748
     12 N          64.3841   84.9244   15.2070 N.am    1  UNL1       -0.2839
     13 H          65.1502   84.4742   15.6308 H       1  UNL1        0.1549
@<TRIPOS>BOND
     1     9    10    1
     2    10    11    2
     3    10    12   am
     4    12     1    1
     5     1     2   ar
     6     2     3   ar
     7     3     4   ar
     8     4     5    1
     9     4     6   ar
    10     6     7   ar
    11     7     1   ar
    12    12    13    1
    13     5     8    1
@<TRIPOS>MOLECULE
*****
 13 13 0 0 0
SMALL
GASTEIGER

@<TRIPOS>ATOM
      1 C          66.3322   93.5632   11.2658 C.ar    1  UNL1        0.0505
      2 C          66.1249   95.0378   11.4463 C.ar    1  UNL1        0.0178
      3 C          66.6916   96.0026   10.4473 C.ar    1  UNL1        0.0379
      4 C          67.4657   95.4929    9.2680 C.ar    1  UNL1        0.1338
      5 O          68.0325   96.4577    8.2691 O.3     1  UNL1       -0.5055
      6 C          67.6730   94.0183    9.0876 C.ar    1  UNL1        0.0379
      7 C          67.1063   93.0535   10.0865 C.ar    1  UNL1        0.0178
      8 H          67.9030   97.3789    8.3818 H       1  UNL1        0.2922
      9 C          66.0070   91.2335   14.4622 C.3     1  UNL1        0.0949
     10 C          66.5738   92.1984   13.4633 C.2     1  UNL1        0.2266
     11 O          67.9490   92.7632   13.6629 O.2     1  UNL1       -0.2748
     12 N          65.7654   92.5984   12.2648 N.am    1  UNL1       -0.2839
     13 H          64.8628   92.2277   12.1338 H       1  UNL1        0.1549
@<TRIPOS>BOND
     1     9    10    1
     2    10    11    2
     3    10    12   am
     4    12     1    1
     5     1     2   ar
     6     2     3   ar
     7     3     4   ar
     8     4     5    1
     9     4     6   ar
    10     6     7   ar
    11     7     1   ar
    12    12    13    1
    13     5     8    1
@<TRIPOS>MOLECULE
*****
 13 13 0 0 0
SMALL
GASTEIGER

@<TRIPOS>ATOM
      1 C          61.6217   88.5400    9.7522 C.ar    1  UNL1        0.0505
      2 C          61.5998   87.0402    9.7586 C.ar    1  UNL1        0.0178
      3 C          60.5411   86.3023    8.9940 C.ar    1  UNL1        0.0379
      4 C          59.5043   87.0642    8.2230 C.ar    1  UNL1        0.1338
      5 O          58.4456   86.3263    7.4583 O.3     1  UNL1       -0.5055
      6 C          59.5261   88.5640    8.2166 C.ar    1  UNL1        0.0379
      7 C          60.5848   89.3019    8.9812 C.ar    1  UNL1        0.0178
      8 H          58.4319   85.3894    7.4623 H       1  UNL1        0.2922
      9 C          63.4538   90.5137   12.6673 C.3     1  UNL1        0.0949
     10 C          62.3951   89.7758   11.9026 C.2     1  UNL1        0.2266
     11 O          61.0510   89.5358   12.5240 O.2     1  UNL1       -0.2748
     12 N          62.6804   89.2779   10.5168 N.am    1  UNL1       -0.2839
     13 H          63.5625   89.4355   10.1090 H       1  UNL1        0.1549
@<TRIPOS>BOND
     1     9    10    1
     2    10    11    2
     3    10    12   am
     4    12     1    1
     5     1     2   ar
     6     2     3   ar
     7     3     4   ar
     8     4     5    1
     9     4     6   ar
    10     6     7   ar
    11     7     1   ar
    12    12    13    1
    13     5     8    1
@<TRIPOS>MOLECULE
*****
 13 13 0 0 0
SMALL
GASTEIGER

@<TRIPOS>ATOM
      1 C          61.6190   88.5417    9.7484 C.ar    1  UNL1        0.0505
      2 C          60.5781   89.3014    8.9807 C.ar    1  UNL1        0.0178
      3 C          59.5198   88.5612    8.2177 C.ar    1  UNL1        0.0379
      4 C          59.5023   87.0614    8.2225 C.ar    1  UNL1        0.1338
      5 O          58.4440   86.3212    7.4595 O.3     1  UNL1       -0.5055
      6 C          60.5432   86.3017    8.9901 C.ar    1  UNL1        0.0379
      7 C          61.6015   87.0418    9.7531 C.ar    1  UNL1        0.0178
      8 H          57.7938   86.7958    6.9800 H       1  UNL1        0.2922
      9 C          63.4571   90.5048   12.6668 C.3     1  UNL1        0.0949
     10 C          62.3988   89.7647   11.9039 C.2     1  UNL1        0.2266
     11 O          61.0618   89.5073   12.5335 O.2     1  UNL1       -0.2748
     12 N          62.6773   89.2819   10.5113 N.am    1  UNL1       -0.2839
     13 H          63.5548   89.4508   10.0981 H       1  UNL1        0.1549
@<TRIPOS>BOND
     1     9    10    1
     2    10    11    2
     3    10    12   am
     4    12     1    1
     5     1     2   ar
     6     2     3   ar
     7     3     4   ar
     8     4     5    1
     9     4     6   ar
    10     6     7   ar
    11     7     1   ar
    12    12    13    1
    13     5     8    1
@<TRIPOS>MOLECULE
*****
 13 13 0 0 0
SMALL
GASTEIGER

@<TRIPOS>ATOM
      1 C          62.8440   83.8530   13.4915 C.ar    1  UNL1        0.0505
      2 C          63.1924   83.4112   12.1010 C.ar    1  UNL1        0.0178
      3 C          63.0743   81.9647   11.7219 C.ar    1  UNL1        0.0379
      4 C          62.6077   80.9600   12.7332 C.ar    1  UNL1        0.1338
      5 O          62.4895   79.5136   12.3541 O.3     1  UNL1       -0.5055
      6 C          62.2592   81.4018   14.1237 C.ar    1  UNL1        0.0379
      7 C          62.3774   82.8483   14.5028 C.ar    1  UNL1        0.0178
      8 H          62.7071   79.2376   11.4855 H       1  UNL1        0.2922
      9 C          64.3782   87.2785   14.7808 C.3     1  UNL1        0.0949
     10 C          64.2600   85.8320   14.4017 C.2     1  UNL1        0.2266
     11 O          65.4397   84.9180   14.5536 O.2     1  UNL1       -0.2748
     12 N          62.9622   85.2995   13.8706 N.am    1  UNL1       -0.2839
     13 H          62.1879   85.8993   13.7709 H       1  UNL1        0.1549
@<TRIPOS>BOND
     1     9    10    1
     2    10    11    2
     3    10    12   am
     4    12     1    1
     5     1     2   ar
     6     2     3   ar
     7     3     4   ar
     8     4     5    1
     9     4     6   ar
    10     6     7   ar
    11     7     1   ar
    12    12    13    1
    13     5     8    1
@<TRIPOS>MOLECULE
*****
 13 13 0 0 0
SMALL
GASTEIGER

@<TRIPOS>ATOM
      1 C          63.9688   84.1667   14.0089 C.ar    1  UNL1        0.0505
      2 C          64.5533   85.4217   14.5861 C.ar    1  UNL1        0.0178
      3 C          63.9492   86.0345   15.8148 C.ar    1  UNL1        0.0379
      4 C          62.7605   85.3922   16.4662 C.ar    1  UNL1        0.1338
      5 O          62.1564   86.0049   17.6949 O.3     1  UNL1       -0.5055
      6 C          62.1760   84.1372   15.8890 C.ar    1  UNL1        0.0379
      7 C          62.7801   83.5244   14.6604 C.ar    1  UNL1        0.0178
      8 H          62.5216   86.7889   18.0554 H       1  UNL1        0.2922
      9 C          64.4233   82.9621   10.2549 C.3     1  UNL1        0.0949
     10 C          63.8192   83.5749   11.4836 C.2     1  UNL1        0.2266
     11 O          62.4612   84.2085   11.4155 O.2     1  UNL1       -0.2748
     12 N          64.5729   83.5540   12.7803 N.am    1  UNL1       -0.2839
     13 H          65.4641   83.1381   12.8249 H       1  UNL1        0.1549
@<TRIPOS>BOND
     1     9    10    1
     2    10    11    2
     3    10    12   am
     4    12     1    1
     5     1     2   ar
     6     2     3   ar
     7     3     4   ar
     8     4     5    1
     9     4     6   ar
    10     6     7   ar
    11     7     1   ar
    12    12    13    1
    13     5     8    1
@<TRIPOS>MOLECULE
*****
 13 13 0 0 0
SMALL
GASTEIGER

@<TRIPOS>ATOM
      1 C          64.9455   92.4912   11.0029 C.ar    1  UNL1        0.0505
      2 C          65.3204   92.3332   12.4466 C.ar    1  UNL1        0.0178
      3 C          64.6095   91.3252   13.3002 C.ar    1  UNL1        0.0379
      4 C          63.5236   90.4752   12.7100 C.ar    1  UNL1        0.1338
      5 O          62.8127   89.4672   13.5636 O.3     1  UNL1       -0.5055
      6 C          63.1487   90.6332   11.2663 C.ar    1  UNL1        0.0379
      7 C          63.8596   91.6411   10.4127 C.ar    1  UNL1        0.0178
      8 H          63.0469   89.3686   14.4654 H       1  UNL1        0.2922
      9 C          67.8536   94.4201    9.1129 C.3     1  UNL1        0.0949
     10 C          67.1426   93.4121    9.9665 C.2     1  UNL1        0.2266
     11 O          67.9180   92.3171   10.6373 O.2     1  UNL1       -0.2748
     12 N          65.6564   93.4991   10.1493 N.am    1  UNL1       -0.2839
     13 H          65.1475   94.2178    9.7091 H       1  UNL1        0.1549
@<TRIPOS>BOND
     1     9    10    1
     2    10    11    2
     3    10    12   am
     4    12     1    1
     5     1     2   ar
     6     2     3   ar
     7     3     4   ar
     8     4     5    1
     9     4     6   ar
    10     6     7   ar
    11     7     1   ar
    12    12    13    1
    13     5     8    1
@<TRIPOS>MOLECULE
*****
 13 13 0 0 0
SMALL
GASTEIGER

@<TRIPOS>ATOM
      1 C          62.9169   84.0599   13.9996 C.ar    1  UNL1        0.0505
      2 C          62.6422   84.7528   12.6979 C.ar    1  UNL1        0.0178
      3 C          63.2015   84.1990   11.4209 C.ar    1  UNL1        0.0379
      4 C          64.0354   82.9525   11.4457 C.ar    1  UNL1        0.1338
      5 O          64.5947   82.3988   10.1687 O.3     1  UNL1       -0.5055
      6 C          64.3101   82.2597   12.7474 C.ar    1  UNL1        0.0379
      7 C          63.7508   82.8134   14.0244 C.ar    1  UNL1        0.0178
      8 H          64.4231   82.8316    9.3556 H       1  UNL1        0.2922
      9 C          62.6114   86.1219   17.3767 C.3     1  UNL1        0.0949
     10 C          63.1707   85.5682   16.0998 C.2     1  UNL1        0.2266
     11 O          64.5431   85.9691   15.6460 O.2     1  UNL1       -0.2748
     12 N          62.3576   84.6137   15.2766 N.am    1  UNL1       -0.2839
     13 H          61.4569   84.3506   15.5744 H       1  UNL1        0.1549
@<TRIPOS>BOND
     1     9    10    1
     2    10    11    2
     3    10    12   am
     4    12     1    1
     5     1     2   ar
     6     2     3   ar
     7     3     4   ar
     8     4     5    1
     9     4     6   ar
    10     6     7   ar
    11     7     1   ar
    12    12    13    1
    13     5     8    1
