@<TRIPOS>MOLECULE
*****
 28 31 0 0 0
SMALL
GASTEIGER

@<TRIPOS>ATOM
      1 C          63.8920   90.8305   12.5135 C.ar    1  UNL1        0.0912
      2 C          64.9306   91.8317   12.1027 C.ar    1  UNL1        0.0466
      3 C          65.7169   92.5679   13.1464 C.ar    1  UNL1        0.1631
      4 C          65.4646   92.3030   14.6012 C.ar    1  UNL1        0.1193
      5 N          64.4259   91.3019   15.0120 N.ar    1  UNL1       -0.2846
      6 C          63.9600   90.8342   16.3590 C.ar    1  UNL1        0.1023
      7 C          62.8858   89.8089   16.1475 C.ar    1  UNL1        0.1195
      8 N          62.6878   89.6428   14.6700 N.ar    1  UNL1       -0.2247
      9 C          63.6396   90.5656   13.9682 C.ar    1  UNL1        0.1524
     10 N          62.6452   88.6904   11.7289 N.am    1  UNL1       -0.2657
     11 C          63.1057   90.0942   11.4696 C.2     1  UNL1        0.2536
     12 O          62.7798   90.7618   10.1664 O.2     1  UNL1       -0.2697
     13 H          62.8591   88.2522   12.5842 H       1  UNL1        0.1566
     14 C          62.4354   85.2153    7.8715 C.3     1  UNL1        0.0521
     15 C          61.7540   86.2167    8.7563 C.ar    1  UNL1        0.0608
     16 C          60.2862   86.4818    8.5972 C.ar    1  UNL1        0.0148
     17 C          59.6048   87.4832    9.4820 C.ar    1  UNL1        0.0041
     18 C          60.3912   88.2194   10.5259 C.ar    1  UNL1        0.0345
     19 C          61.8589   87.9542   10.6850 C.ar    1  UNL1        0.1340
     20 N          62.5403   86.9528    9.8001 N.ar    1  UNL1       -0.2348
     21 O          66.7556   93.5692   12.7356 O.3     1  UNL1       -0.4503
     22 C          67.0039   93.8383   11.2809 C.ar    1  UNL1        0.1667
     23 C          66.4188   95.0582   10.6334 C.ar    1  UNL1        0.1364
     24 N          66.6671   95.3274    9.1787 N.ar    1  UNL1       -0.2368
     25 C          67.5005   94.3766    8.3717 C.ar    1  UNL1        0.1286
     26 C          68.0857   93.1566    9.0193 C.ar    1  UNL1        0.1623
     27 F          68.9192   92.2057    8.2123 F       1  UNL1       -0.2024
     28 C          67.8374   92.8875   10.4739 C.ar    1  UNL1        0.0703
@<TRIPOS>BOND
     1    14    15    1
     2    15    16   ar
     3    16    17   ar
     4    17    18   ar
     5    18    19   ar
     6    19    10    1
     7    10    11   am
     8    11    12    2
     9    11     1    1
    10     1     2   ar
    11     2     3   ar
    12     3    21    1
    13    21    22    1
    14    22    23   ar
    15    23    24   ar
    16    24    25   ar
    17    25    26   ar
    18    26    27    1
    19    26    28   ar
    20     3     4   ar
    21     4     5   ar
    22     5     6   ar
    23     6     7   ar
    24     7     8   ar
    25     8     9   ar
    26    19    20   ar
    27    20    15   ar
    28     9     1   ar
    29    28    22   ar
    30     9     5   ar
    31    10    13    1
@<TRIPOS>MOLECULE
*****
 28 31 0 0 0
SMALL
GASTEIGER

@<TRIPOS>ATOM
      1 C          63.5446   88.0986   13.1757 C.ar    1  UNL1        0.0912
      2 C          64.0651   89.0483   14.2135 C.ar    1  UNL1        0.0466
      3 C          63.9058   90.5276   14.0237 C.ar    1  UNL1        0.1631
      4 C          63.2260   91.0574   12.7959 C.ar    1  UNL1        0.1193
      5 N          62.7055   90.1077   11.7581 N.ar    1  UNL1       -0.2846
      6 C          61.9972   90.3343   10.4554 C.ar    1  UNL1        0.1023
      7 C          61.7187   88.9949    9.8402 C.ar    1  UNL1        0.1195
      8 N          62.2549   87.9405   10.7627 N.ar    1  UNL1       -0.2247
      9 C          62.8648   88.6283   11.9480 C.ar    1  UNL1        0.1524
     10 N          63.0237   85.6653   12.4289 N.am    1  UNL1       -0.2657
     11 C          63.7038   86.6192   13.3656 C.2     1  UNL1        0.2536
     12 O          64.5433   86.0937   14.4923 O.2     1  UNL1       -0.2697
     13 H          62.4728   86.0101   11.6894 H       1  UNL1        0.1566
     14 C          61.2357   81.1459   14.2668 C.3     1  UNL1        0.0521
     15 C          62.2891   81.9262   13.5378 C.ar    1  UNL1        0.0608
     16 C          63.5018   81.2271   12.9987 C.ar    1  UNL1        0.0148
     17 C          64.5552   82.0075   12.2697 C.ar    1  UNL1        0.0041
     18 C          64.3958   83.4869   12.0797 C.ar    1  UNL1        0.0345
     19 C          63.1830   84.1859   12.6188 C.ar    1  UNL1        0.1340
     20 N          62.1297   83.4055   13.3479 N.ar    1  UNL1       -0.2348
     21 O          64.4264   91.4774   15.0616 O.3     1  UNL1       -0.4503
     22 C          65.8679   91.8919   15.0432 C.ar    1  UNL1        0.1667
     23 C          66.4352   92.6835   16.1840 C.ar    1  UNL1        0.1364
     24 N          67.8767   93.0981   16.1657 N.ar    1  UNL1       -0.2368
     25 C          68.7508   92.7210   15.0065 C.ar    1  UNL1        0.1286
     26 C          68.1835   91.9293   13.8658 C.ar    1  UNL1        0.1623
     27 F          69.0576   91.5521   12.7065 F       1  UNL1       -0.2024
     28 C          66.7420   91.5148   13.8841 C.ar    1  UNL1        0.0703
@<TRIPOS>BOND
     1    14    15    1
     2    15    16   ar
     3    16    17   ar
     4    17    18   ar
     5    18    19   ar
     6    19    10    1
     7    10    11   am
     8    11    12    2
     9    11     1    1
    10     1     2   ar
    11     2     3   ar
    12     3    21    1
    13    21    22    1
    14    22    23   ar
    15    23    24   ar
    16    24    25   ar
    17    25    26   ar
    18    26    27    1
    19    26    28   ar
    20     3     4   ar
    21     4     5   ar
    22     5     6   ar
    23     6     7   ar
    24     7     8   ar
    25     8     9   ar
    26    19    20   ar
    27    20    15   ar
    28     9     1   ar
    29    28    22   ar
    30     9     5   ar
    31    10    13    1
@<TRIPOS>MOLECULE
*****
 28 31 0 0 0
SMALL
GASTEIGER

@<TRIPOS>ATOM
      1 C          62.6128   87.9913   11.7105 C.ar    1  UNL1        0.0912
      2 C          63.2246   89.0826   12.5380 C.ar    1  UNL1        0.0466
      3 C          62.9293   90.5187   12.2218 C.ar    1  UNL1        0.1631
      4 C          62.0220   90.8638   11.0781 C.ar    1  UNL1        0.1193
      5 N          61.4102   89.7725   10.2507 N.ar    1  UNL1       -0.2846
      6 C          60.4847   89.8065    9.0707 C.ar    1  UNL1        0.1023
      7 C          60.2082   88.3913    8.6576 C.ar    1  UNL1        0.1195
      8 N          60.9627   87.4826    9.5823 N.ar    1  UNL1       -0.2247
      9 C          61.7055   88.3362   10.5669 C.ar    1  UNL1        0.1524
     10 N          62.5553   85.4819   11.0399 N.am    1  UNL1       -0.2657
     11 C          62.9082   86.5550   12.0267 C.2     1  UNL1        0.2536
     12 O          63.5565   86.1919   13.3298 O.2     1  UNL1       -0.2697
     13 H          62.1298   85.7202   10.1847 H       1  UNL1        0.1566
     14 C          61.9817   81.3446   14.1309 C.3     1  UNL1        0.0521
     15 C          62.5639   81.9771   12.9016 C.ar    1  UNL1        0.0608
     16 C          63.4416   81.1732   11.9886 C.ar    1  UNL1        0.0148
     17 C          64.0238   81.8057   10.7594 C.ar    1  UNL1        0.0041
     18 C          63.7284   83.2419   10.4432 C.ar    1  UNL1        0.0345
     19 C          62.8507   84.0457   11.3562 C.ar    1  UNL1        0.1340
     20 N          62.2685   83.4132   12.5854 N.ar    1  UNL1       -0.2348
     21 O          63.5412   91.6101   13.0493 O.3     1  UNL1       -0.4503
     22 C          65.0319   91.7704   13.0951 C.ar    1  UNL1        0.1667
     23 C          65.7697   92.2718   11.8892 C.ar    1  UNL1        0.1364
     24 N          67.2604   92.4321   11.9349 N.ar    1  UNL1       -0.2368
     25 C          68.0133   92.0911   13.1867 C.ar    1  UNL1        0.1286
     26 C          67.2755   91.5898   14.3926 C.ar    1  UNL1        0.1623
     27 F          68.0284   91.2488   15.6445 F       1  UNL1       -0.2024
     28 C          65.7848   91.4295   14.3468 C.ar    1  UNL1        0.0703
@<TRIPOS>BOND
     1    14    15    1
     2    15    16   ar
     3    16    17   ar
     4    17    18   ar
     5    18    19   ar
     6    19    10    1
     7    10    11   am
     8    11    12    2
     9    11     1    1
    10     1     2   ar
    11     2     3   ar
    12     3    21    1
    13    21    22    1
    14    22    23   ar
    15    23    24   ar
    16    24    25   ar
    17    25    26   ar
    18    26    27    1
    19    26    28   ar
    20     3     4   ar
    21     4     5   ar
    22     5     6   ar
    23     6     7   ar
    24     7     8   ar
    25     8     9   ar
    26    19    20   ar
    27    20    15   ar
    28     9     1   ar
    29    28    22   ar
    30     9     5   ar
    31    10    13    1
@<TRIPOS>MOLECULE
*****
 28 31 0 0 0
SMALL
GASTEIGER

@<TRIPOS>ATOM
      1 C          63.1938   88.5092   12.4133 C.ar    1  UNL1        0.0912
      2 C          63.5098   89.9245   12.7966 C.ar    1  UNL1        0.0466
      3 C          64.2126   90.2122   14.0901 C.ar    1  UNL1        0.1631
      4 C          64.5995   89.0844   15.0004 C.ar    1  UNL1        0.1193
      5 N          64.2835   87.6691   14.6171 N.ar    1  UNL1       -0.2846
      6 C          64.5397   86.3616   15.3062 C.ar    1  UNL1        0.1023
      7 C          63.9951   85.2659   14.4385 C.ar    1  UNL1        0.1195
      8 N          63.4024   85.8962   13.2132 N.ar    1  UNL1       -0.2247
      9 C          63.5806   87.3815   13.3235 C.ar    1  UNL1        0.1524
     10 N          61.8965   86.8665   10.8743 N.am    1  UNL1       -0.2657
     11 C          62.4909   88.2216   11.1198 C.2     1  UNL1        0.2536
     12 O          62.3824   89.2892   10.0716 O.2     1  UNL1       -0.2697
     13 H          61.9676   86.1658   11.5622 H       1  UNL1        0.1566
     14 C          61.8012   84.5551    6.2216 C.3     1  UNL1        0.0521
     15 C          61.1460   85.4233    7.2544 C.ar    1  UNL1        0.0608
     16 C          59.7877   86.0041    6.9936 C.ar    1  UNL1        0.0148
     17 C          59.1324   86.8723    8.0265 C.ar    1  UNL1        0.0041
     18 C          59.8354   87.1598    9.3200 C.ar    1  UNL1        0.0345
     19 C          61.1936   86.5790    9.5807 C.ar    1  UNL1        0.1340
     20 N          61.8488   85.7108    8.5479 N.ar    1  UNL1       -0.2348
     21 O          64.5286   91.6276   14.4734 O.3     1  UNL1       -0.4503
     22 C          65.9502   92.0387   14.7184 C.ar    1  UNL1        0.1667
     23 C          66.3076   92.7994   15.9608 C.ar    1  UNL1        0.1364
     24 N          67.7292   93.2105   16.2057 N.ar    1  UNL1       -0.2368
     25 C          68.7935   92.8610   15.2082 C.ar    1  UNL1        0.1286
     26 C          68.4362   92.1002   13.9657 C.ar    1  UNL1        0.1623
     27 F          69.5004   91.7506   12.9681 F       1  UNL1       -0.2024
     28 C          67.0145   91.6891   13.7208 C.ar    1  UNL1        0.0703
@<TRIPOS>BOND
     1    14    15    1
     2    15    16   ar
     3    16    17   ar
     4    17    18   ar
     5    18    19   ar
     6    19    10    1
     7    10    11   am
     8    11    12    2
     9    11     1    1
    10     1     2   ar
    11     2     3   ar
    12     3    21    1
    13    21    22    1
    14    22    23   ar
    15    23    24   ar
    16    24    25   ar
    17    25    26   ar
    18    26    27    1
    19    26    28   ar
    20     3     4   ar
    21     4     5   ar
    22     5     6   ar
    23     6     7   ar
    24     7     8   ar
    25     8     9   ar
    26    19    20   ar
    27    20    15   ar
    28     9     1   ar
    29    28    22   ar
    30     9     5   ar
    31    10    13    1
@<TRIPOS>MOLECULE
*****
 28 31 0 0 0
SMALL
GASTEIGER

@<TRIPOS>ATOM
      1 C          63.2916   90.0084   12.1206 C.ar    1  UNL1        0.0912
      2 C          63.1837   89.4205   13.4963 C.ar    1  UNL1        0.0466
      3 C          63.9455   90.0314   14.6348 C.ar    1  UNL1        0.1631
      4 C          64.8153   91.2304   14.3977 C.ar    1  UNL1        0.1193
      5 N          64.9231   91.8183   13.0219 N.ar    1  UNL1       -0.2846
      6 C          65.6952   92.9882   12.4881 C.ar    1  UNL1        0.1023
      7 C          65.4106   93.1003   11.0196 C.ar    1  UNL1        0.1195
      8 N          64.4625   91.9996   10.6459 N.ar    1  UNL1       -0.2247
      9 C          64.1612   91.2073   11.8834 C.ar    1  UNL1        0.1524
     10 N          62.2600   87.9219   10.9662 N.am    1  UNL1       -0.2657
     11 C          62.5297   89.3974   10.9820 C.2     1  UNL1        0.2536
     12 O          62.0375   90.2619    9.8593 O.2     1  UNL1       -0.2697
     13 H          62.5831   87.3545   11.7030 H       1  UNL1        0.1566
     14 C          62.1100   84.8097    6.8079 C.3     1  UNL1        0.0521
     15 C          61.4231   85.7549    7.7485 C.ar    1  UNL1        0.0608
     16 C          59.9743   86.0892    7.5505 C.ar    1  UNL1        0.0148
     17 C          59.2874   87.0345    8.4911 C.ar    1  UNL1        0.0041
     18 C          60.0494   87.6453    9.6296 C.ar    1  UNL1        0.0345
     19 C          61.4981   87.3110    9.8276 C.ar    1  UNL1        0.1340
     20 N          62.1850   86.3657    8.8870 N.ar    1  UNL1       -0.2348
     21 O          63.8377   89.4434   16.0107 O.3     1  UNL1       -0.4503
     22 C          63.4793   87.9970   16.1822 C.ar    1  UNL1        0.1667
     23 C          62.4032   87.6005   17.1490 C.ar    1  UNL1        0.1364
     24 N          62.0448   86.1541   17.3206 N.ar    1  UNL1       -0.2368
     25 C          62.7624   85.1042   16.5252 C.ar    1  UNL1        0.1286
     26 C          63.8384   85.5007   15.5583 C.ar    1  UNL1        0.1623
     27 F          64.5561   84.4508   14.7628 F       1  UNL1       -0.2024
     28 C          64.1969   86.9471   15.3868 C.ar    1  UNL1        0.0703
@<TRIPOS>BOND
     1    14    15    1
     2    15    16   ar
     3    16    17   ar
     4    17    18   ar
     5    18    19   ar
     6    19    10    1
     7    10    11   am
     8    11    12    2
     9    11     1    1
    10     1     2   ar
    11     2     3   ar
    12     3    21    1
    13    21    22    1
    14    22    23   ar
    15    23    24   ar
    16    24    25   ar
    17    25    26   ar
    18    26    27    1
    19    26    28   ar
    20     3     4   ar
    21     4     5   ar
    22     5     6   ar
    23     6     7   ar
    24     7     8   ar
    25     8     9   ar
    26    19    20   ar
    27    20    15   ar
    28     9     1   ar
    29    28    22   ar
    30     9     5   ar
    31    10    13    1
@<TRIPOS>MOLECULE
*****
 28 31 0 0 0
SMALL
GASTEIGER

@<TRIPOS>ATOM
      1 C          63.8213   86.8540   14.4538 C.ar    1  UNL1        0.0912
      2 C          64.0829   88.0826   13.6340 C.ar    1  UNL1        0.0466
      3 C          63.9512   89.4412   14.2557 C.ar    1  UNL1        0.1631
      4 C          63.5578   89.5714   15.6973 C.ar    1  UNL1        0.1193
      5 N          63.2962   88.3429   16.5172 N.ar    1  UNL1       -0.2846
      6 C          62.8958   88.1597   17.9511 C.ar    1  UNL1        0.1023
      7 C          62.7802   86.6877   18.2156 C.ar    1  UNL1        0.1195
      8 N          63.1090   85.9612   16.9451 N.ar    1  UNL1       -0.2247
      9 C          63.4280   86.9842   15.8955 C.ar    1  UNL1        0.1524
     10 N          62.8918   84.9911   12.8997 N.am    1  UNL1       -0.2657
     11 C          63.9531   85.4953   13.8321 C.2     1  UNL1        0.2536
     12 O          65.1462   84.6408   14.1428 O.2     1  UNL1       -0.2697
     13 H          62.1088   85.5518   12.6958 H       1  UNL1        0.1566
     14 C          62.2706   79.8392   13.1695 C.3     1  UNL1        0.0521
     15 C          62.7131   81.0565   12.4129 C.ar    1  UNL1        0.0608
     16 C          63.2874   80.9149   11.0344 C.ar    1  UNL1        0.0148
     17 C          63.7299   82.1322   10.2778 C.ar    1  UNL1        0.0041
     18 C          63.5980   83.4909   10.8995 C.ar    1  UNL1        0.0345
     19 C          63.0237   83.6323   12.2780 C.ar    1  UNL1        0.1340
     20 N          62.5812   82.4151   13.0346 N.ar    1  UNL1       -0.2348
     21 O          64.2128   90.6698   13.4357 O.3     1  UNL1       -0.4503
     22 C          65.3472   91.5833   13.7944 C.ar    1  UNL1        0.1667
     23 C          65.7026   92.7278   12.8922 C.ar    1  UNL1        0.1364
     24 N          66.8370   93.6413   13.2509 N.ar    1  UNL1       -0.2368
     25 C          67.6161   93.4103   14.5117 C.ar    1  UNL1        0.1286
     26 C          67.2607   92.2658   15.4138 C.ar    1  UNL1        0.1623
     27 F          68.0398   92.0347   16.6747 F       1  UNL1       -0.2024
     28 C          66.1263   91.3523   15.0552 C.ar    1  UNL1        0.0703
@<TRIPOS>BOND
     1    14    15    1
     2    15    16   ar
     3    16    17   ar
     4    17    18   ar
     5    18    19   ar
     6    19    10    1
     7    10    11   am
     8    11    12    2
     9    11     1    1
    10     1     2   ar
    11     2     3   ar
    12     3    21    1
    13    21    22    1
    14    22    23   ar
    15    23    24   ar
    16    24    25   ar
    17    25    26   ar
    18    26    27    1
    19    26    28   ar
    20     3     4   ar
    21     4     5   ar
    22     5     6   ar
    23     6     7   ar
    24     7     8   ar
    25     8     9   ar
    26    19    20   ar
    27    20    15   ar
    28     9     1   ar
    29    28    22   ar
    30     9     5   ar
    31    10    13    1
@<TRIPOS>MOLECULE
*****
 28 31 0 0 0
SMALL
GASTEIGER

@<TRIPOS>ATOM
      1 C          63.4739   90.7587   11.7993 C.ar    1  UNL1        0.0912
      2 C          63.2646   90.2418   13.1917 C.ar    1  UNL1        0.0466
      3 C          64.0693   90.7999   14.3278 C.ar    1  UNL1        0.1631
      4 C          65.0835   91.8750   14.0715 C.ar    1  UNL1        0.1193
      5 N          65.2928   92.3920   12.6791 N.ar    1  UNL1       -0.2846
      6 C          66.2133   93.4386   12.1249 C.ar    1  UNL1        0.1023
      7 C          65.9774   93.5273   10.6462 C.ar    1  UNL1        0.1195
      8 N          64.9111   92.5355   10.2865 N.ar    1  UNL1       -0.2247
      9 C          64.4880   91.8338   11.5430 C.ar    1  UNL1        0.1524
     10 N          61.9015   88.9246   10.8436 N.am    1  UNL1       -0.2657
     11 C          62.6691   90.2006   10.6632 C.2     1  UNL1        0.2536
     12 O          62.6319   90.9185    9.3465 O.2     1  UNL1       -0.2697
     13 H          61.9259   88.4534   11.7076 H       1  UNL1        0.1566
     14 C          59.0157   89.6597    6.5854 C.3     1  UNL1        0.0521
     15 C          59.6538   88.7340    7.5784 C.ar    1  UNL1        0.0608
     16 C          59.4871   87.2502    7.4351 C.ar    1  UNL1        0.0148
     17 C          60.1253   86.3245    8.4280 C.ar    1  UNL1        0.0041
     18 C          60.9300   86.8827    9.5641 C.ar    1  UNL1        0.0345
     19 C          61.0967   88.3665    9.7074 C.ar    1  UNL1        0.1340
     20 N          60.4585   89.2921    8.7144 N.ar    1  UNL1       -0.2348
     21 O          63.8600   90.2829   15.7203 O.3     1  UNL1       -0.4503
     22 C          63.7203   88.8087   15.9600 C.ar    1  UNL1        0.1667
     23 C          64.2218   87.8319   14.9381 C.ar    1  UNL1        0.1364
     24 N          64.0821   86.3578   15.1777 N.ar    1  UNL1       -0.2368
     25 C          63.4409   85.8605   16.4392 C.ar    1  UNL1        0.1286
     26 C          62.9394   86.8373   17.4611 C.ar    1  UNL1        0.1623
     27 F          62.2981   86.3400   18.7227 F       1  UNL1       -0.2024
     28 C          63.0791   88.3114   17.2215 C.ar    1  UNL1        0.0703
@<TRIPOS>BOND
     1    14    15    1
     2    15    16   ar
     3    16    17   ar
     4    17    18   ar
     5    18    19   ar
     6    19    10    1
     7    10    11   am
     8    11    12    2
     9    11     1    1
    10     1     2   ar
    11     2     3   ar
    12     3    21    1
    13    21    22    1
    14    22    23   ar
    15    23    24   ar
    16    24    25   ar
    17    25    26   ar
    18    26    27    1
    19    26    28   ar
    20     3     4   ar
    21     4     5   ar
    22     5     6   ar
    23     6     7   ar
    24     7     8   ar
    25     8     9   ar
    26    19    20   ar
    27    20    15   ar
    28     9     1   ar
    29    28    22   ar
    30     9     5   ar
    31    10    13    1
@<TRIPOS>MOLECULE
*****
 28 31 0 0 0
SMALL
GASTEIGER

@<TRIPOS>ATOM
      1 C          62.3848   87.9773   11.2414 C.ar    1  UNL1        0.0912
      2 C          62.9278   86.5926   11.4353 C.ar    1  UNL1        0.0466
      3 C          62.4954   85.4829   10.5234 C.ar    1  UNL1        0.1631
      4 C          61.5199   85.7579    9.4176 C.ar    1  UNL1        0.1193
      5 N          60.9769   87.1426    9.2237 N.ar    1  UNL1       -0.2846
      6 C          60.0094   87.7110    8.2282 C.ar    1  UNL1        0.1023
      7 C          59.8440   89.1721    8.5249 C.ar    1  UNL1        0.1195
      8 N          60.7091   89.5066    9.7037 N.ar    1  UNL1       -0.2247
      9 C          61.4093   88.2523   10.1356 C.ar    1  UNL1        0.1524
     10 N          63.7128   88.7930   13.3201 N.am    1  UNL1       -0.2657
     11 C          62.8173   89.0870   12.1533 C.2     1  UNL1        0.2536
     12 O          62.3541   90.4909   11.8983 O.2     1  UNL1       -0.2697
     13 H          64.0168   87.8717   13.4874 H       1  UNL1        0.1566
     14 C          66.7698   92.8788   14.3005 C.3     1  UNL1        0.0521
     15 C          65.6737   91.9456   14.7222 C.ar    1  UNL1        0.0608
     16 C          65.0100   92.1223   16.0557 C.ar    1  UNL1        0.0148
     17 C          63.9139   91.1891   16.4774 C.ar    1  UNL1        0.0041
     18 C          63.4815   90.0793   15.5654 C.ar    1  UNL1        0.0345
     19 C          64.1453   89.9028   14.2319 C.ar    1  UNL1        0.1340
     20 N          65.2413   90.8360   13.8103 N.ar    1  UNL1       -0.2348
     21 O          63.0385   84.0981   10.7173 O.3     1  UNL1       -0.4503
     22 C          62.7322   83.3418   11.9760 C.ar    1  UNL1        0.1667
     23 C          62.5974   84.0750   13.2776 C.ar    1  UNL1        0.1364
     24 N          62.2911   83.3187   14.5363 N.ar    1  UNL1       -0.2368
     25 C          62.1195   81.8292   14.4933 C.ar    1  UNL1        0.1286
     26 C          62.2542   81.0960   13.1916 C.ar    1  UNL1        0.1623
     27 F          62.0826   79.6064   13.1485 F       1  UNL1       -0.2024
     28 C          62.5605   81.8523   11.9330 C.ar    1  UNL1        0.0703
@<TRIPOS>BOND
     1    14    15    1
     2    15    16   ar
     3    16    17   ar
     4    17    18   ar
     5    18    19   ar
     6    19    10    1
     7    10    11   am
     8    11    12    2
     9    11     1    1
    10     1     2   ar
    11     2     3   ar
    12     3    21    1
    13    21    22    1
    14    22    23   ar
    15    23    24   ar
    16    24    25   ar
    17    25    26   ar
    18    26    27    1
    19    26    28   ar
    20     3     4   ar
    21     4     5   ar
    22     5     6   ar
    23     6     7   ar
    24     7     8   ar
    25     8     9   ar
    26    19    20   ar
    27    20    15   ar
    28     9     1   ar
    29    28    22   ar
    30     9     5   ar
    31    10    13    1
@<TRIPOS>MOLECULE
*****
 28 31 0 0 0
SMALL
GASTEIGER

@<TRIPOS>ATOM
      1 C          62.6806   88.7140   11.7229 C.ar    1  UNL1        0.0912
      2 C          62.9985   87.4643   12.4893 C.ar    1  UNL1        0.0466
      3 C          62.3069   86.1782   12.1470 C.ar    1  UNL1        0.1631
      4 C          61.2971   86.1415   11.0382 C.ar    1  UNL1        0.1193
      5 N          60.9792   87.3912   10.2719 N.ar    1  UNL1       -0.2846
      6 C          60.0364   87.6598    9.1365 C.ar    1  UNL1        0.1023
      7 C          60.1455   89.1120    8.7772 C.ar    1  UNL1        0.1195
      8 N          61.1557   89.7409    9.6904 N.ar    1  UNL1       -0.2247
      9 C          61.6709   88.6774   10.6142 C.ar    1  UNL1        0.1524
     10 N          64.4715   90.0120   13.0858 N.am    1  UNL1       -0.2657
     11 C          63.3723   90.0002   12.0653 C.2     1  UNL1        0.2536
     12 O          62.9647   91.2746   11.3871 O.2     1  UNL1       -0.2697
     13 H          64.7390   89.1757   13.5309 H       1  UNL1        0.1566
     14 C          66.3213   94.6489   11.6444 C.3     1  UNL1        0.0521
     15 C          66.0881   93.6167   12.7074 C.ar    1  UNL1        0.0608
     16 C          66.5465   93.8708   14.1129 C.ar    1  UNL1        0.0148
     17 C          66.3133   92.8386   15.1760 C.ar    1  UNL1        0.0041
     18 C          65.6216   91.5523   14.8336 C.ar    1  UNL1        0.0345
     19 C          65.1632   91.2983   13.4281 C.ar    1  UNL1        0.1340
     20 N          65.3964   92.3305   12.3651 N.ar    1  UNL1       -0.2348
     21 O          62.6248   84.9285   12.9133 O.3     1  UNL1       -0.4503
     22 C          62.9225   83.6542   12.1800 C.ar    1  UNL1        0.1667
     23 C          63.6659   83.6944   10.8779 C.ar    1  UNL1        0.1364
     24 N          63.9635   82.4201   10.1445 N.ar    1  UNL1       -0.2368
     25 C          63.5177   81.1058   10.7134 C.ar    1  UNL1        0.1286
     26 C          62.7742   81.0656   12.0155 C.ar    1  UNL1        0.1623
     27 F          62.3283   79.7512   12.5845 F       1  UNL1       -0.2024
     28 C          62.4766   82.3399   12.7489 C.ar    1  UNL1        0.0703
@<TRIPOS>BOND
     1    14    15    1
     2    15    16   ar
     3    16    17   ar
     4    17    18   ar
     5    18    19   ar
     6    19    10    1
     7    10    11   am
     8    11    12    2
     9    11     1    1
    10     1     2   ar
    11     2     3   ar
    12     3    21    1
    13    21    22    1
    14    22    23   ar
    15    23    24   ar
    16    24    25   ar
    17    25    26   ar
    18    26    27    1
    19    26    28   ar
    20     3     4   ar
    21     4     5   ar
    22     5     6   ar
    23     6     7   ar
    24     7     8   ar
    25     8     9   ar
    26    19    20   ar
    27    20    15   ar
    28     9     1   ar
    29    28    22   ar
    30     9     5   ar
    31    10    13    1
