@<TRIPOS>MOLECULE
*****
 28 31 0 0 0
SMALL
GASTEIGER

@<TRIPOS>ATOM
      1 C          65.1593   92.3225   11.5041 C.ar    1  UNL1        0.1385
      2 C          64.3729   92.1124   10.2442 C.ar    1  UNL1        0.0370
      3 C          63.1693   91.2172   10.2519 C.ar    1  UNL1        0.0063
      4 C          62.7522   90.5322   11.5194 C.ar    1  UNL1        0.0391
      5 C          63.5386   90.7423   12.7794 C.ar    1  UNL1        0.0060
      6 C          63.1214   90.0572   14.0469 C.ar    1  UNL1        0.0002
      7 C          63.9078   90.2674   15.3068 C.ar    1  UNL1        0.0000
      8 C          65.1114   91.1625   15.2991 C.ar    1  UNL1        0.0001
      9 C          65.5286   91.8476   14.0316 C.ar    1  UNL1        0.0030
     10 C          64.7422   91.6374   12.7717 C.ar    1  UNL1        0.0341
     11 C          61.5486   89.6370   11.5270 C.2     1  UNL1        0.1955
     12 O          60.2429   90.1404   12.0673 O.2     1  UNL1       -0.2866
     13 C          61.6506   88.2385   10.9943 C.ar    1  UNL1        0.0389
     14 C          62.4642   87.2139   11.7281 C.ar    1  UNL1        0.0032
     15 C          62.5662   85.8154   11.1954 C.ar    1  UNL1        0.0001
     16 C          61.8547   85.4415    9.9289 C.ar    1  UNL1        0.0000
     17 C          61.0412   86.4660    9.1952 C.ar    1  UNL1        0.0001
     18 C          60.3297   86.0920    7.9287 C.ar    1  UNL1        0.0000
     19 C          59.5161   87.1166    7.1949 C.ar    1  UNL1        0.0000
     20 C          59.4141   88.5151    7.7276 C.ar    1  UNL1        0.0000
     21 C          60.1256   88.8891    8.9941 C.ar    1  UNL1        0.0001
     22 C          60.9391   87.8646    9.7278 C.ar    1  UNL1        0.0031
     23 O          66.3629   93.2176   11.4965 O.3     1  UNL1       -0.4755
     24 C          66.2040   94.6859   11.2340 C.3     1  UNL1        0.2054
     25 C          66.5700   95.2522    9.8941 C.3     1  UNL1        0.0473
     26 C          67.8635   94.8615    9.2428 C.3     1  UNL1        0.0038
     27 C          68.7779   92.4321    9.1344 C.3     1  UNL1        0.0000
     28 C          67.9770   93.5468    8.5295 C.3     1  UNL1        0.0001
@<TRIPOS>BOND
     1    27    28    1
     2    28    26    1
     3    26    25    1
     4    25    24    1
     5    24    23    1
     6    23     1    1
     7     1     2   ar
     8     2     3   ar
     9     3     4   ar
    10     4    11    1
    11    11    12    2
    12    11    13    1
    13    13    14   ar
    14    14    15   ar
    15    15    16   ar
    16    16    17   ar
    17    17    18   ar
    18    18    19   ar
    19    19    20   ar
    20    20    21   ar
    21    21    22   ar
    22     4     5   ar
    23     5     6   ar
    24     6     7   ar
    25     7     8   ar
    26     8     9   ar
    27     9    10   ar
    28    10     1   ar
    29    22    13   ar
    30    10     5   ar
    31    22    17   ar
@<TRIPOS>MOLECULE
*****
 28 31 0 0 0
SMALL
GASTEIGER

@<TRIPOS>ATOM
      1 C          63.8619   91.5694   11.2411 C.ar    1  UNL1        0.1385
      2 C          62.9991   91.2206   10.0647 C.ar    1  UNL1        0.0370
      3 C          62.2766   89.9066   10.0280 C.ar    1  UNL1        0.0063
      4 C          62.4170   88.9414   11.1675 C.ar    1  UNL1        0.0391
      5 C          63.2798   89.2902   12.3439 C.ar    1  UNL1        0.0060
      6 C          63.4201   88.3250   13.4835 C.ar    1  UNL1        0.0002
      7 C          64.2829   88.6738   14.6598 C.ar    1  UNL1        0.0000
      8 C          65.0054   89.9878   14.6966 C.ar    1  UNL1        0.0001
      9 C          64.8651   90.9530   13.5571 C.ar    1  UNL1        0.0030
     10 C          64.0023   90.6042   12.3807 C.ar    1  UNL1        0.0341
     11 C          61.6945   87.6273   11.1307 C.2     1  UNL1        0.1955
     12 O          60.3650   87.4831   11.8102 O.2     1  UNL1       -0.2866
     13 C          62.3015   86.4575   10.4144 C.ar    1  UNL1        0.0389
     14 C          62.4106   86.4685    8.9184 C.ar    1  UNL1        0.0032
     15 C          63.0176   85.2986    8.2021 C.ar    1  UNL1        0.0001
     16 C          63.5154   84.1179    8.9818 C.ar    1  UNL1        0.0000
     17 C          63.4064   84.1069   10.4778 C.ar    1  UNL1        0.0001
     18 C          63.9042   82.9262   11.2574 C.ar    1  UNL1        0.0000
     19 C          63.7951   82.9152   12.7535 C.ar    1  UNL1        0.0000
     20 C          63.1881   84.0850   13.4698 C.ar    1  UNL1        0.0000
     21 C          62.6903   85.2658   12.6901 C.ar    1  UNL1        0.0001
     22 C          62.7994   85.2768   11.1941 C.ar    1  UNL1        0.0031
     23 O          64.5844   92.8835   11.2779 O.3     1  UNL1       -0.4755
     24 C          65.7121   93.1463   10.3245 C.3     1  UNL1        0.2054
     25 C          66.6063   94.3331   10.5293 C.3     1  UNL1        0.0473
     26 C          67.6611   94.6614    9.5145 C.3     1  UNL1        0.0038
     27 C          68.9959   92.4512    9.2268 C.3     1  UNL1        0.0000
     28 C          68.2126   93.5827    8.6302 C.3     1  UNL1        0.0001
@<TRIPOS>BOND
     1    27    28    1
     2    28    26    1
     3    26    25    1
     4    25    24    1
     5    24    23    1
     6    23     1    1
     7     1     2   ar
     8     2     3   ar
     9     3     4   ar
    10     4    11    1
    11    11    12    2
    12    11    13    1
    13    13    14   ar
    14    14    15   ar
    15    15    16   ar
    16    16    17   ar
    17    17    18   ar
    18    18    19   ar
    19    19    20   ar
    20    20    21   ar
    21    21    22   ar
    22     4     5   ar
    23     5     6   ar
    24     6     7   ar
    25     7     8   ar
    26     8     9   ar
    27     9    10   ar
    28    10     1   ar
    29    22    13   ar
    30    10     5   ar
    31    22    17   ar
@<TRIPOS>MOLECULE
*****
 28 31 0 0 0
SMALL
GASTEIGER

@<TRIPOS>ATOM
      1 C          64.2452   89.4395   14.0104 C.ar    1  UNL1        0.1385
      2 C          65.2835   90.1274   14.8463 C.ar    1  UNL1        0.0370
      3 C          65.9090   91.4031   14.3653 C.ar    1  UNL1        0.0063
      4 C          65.4963   91.9908   13.0484 C.ar    1  UNL1        0.0391
      5 C          64.4579   91.3029   12.2125 C.ar    1  UNL1        0.0060
      6 C          64.0452   91.8907   10.8957 C.ar    1  UNL1        0.0002
      7 C          63.0069   91.2028   10.0598 C.ar    1  UNL1        0.0000
      8 C          62.3813   89.9271   10.5408 C.ar    1  UNL1        0.0001
      9 C          62.7941   89.3393   11.8577 C.ar    1  UNL1        0.0030
     10 C          63.8324   90.0272   12.6935 C.ar    1  UNL1        0.0341
     11 C          66.1218   93.2665   12.5674 C.2     1  UNL1        0.1955
     12 O          66.0545   94.5014   13.4163 O.2     1  UNL1       -0.2866
     13 C          66.8146   93.3072   11.2377 C.ar    1  UNL1        0.0389
     14 C          67.7464   92.1999   10.8432 C.ar    1  UNL1        0.0032
     15 C          68.4393   92.2406    9.5134 C.ar    1  UNL1        0.0001
     16 C          68.2004   93.3887    8.5781 C.ar    1  UNL1        0.0000
     17 C          67.2686   94.4961    8.9726 C.ar    1  UNL1        0.0001
     18 C          67.0297   95.6442    8.0373 C.ar    1  UNL1        0.0000
     19 C          66.0979   96.7515    8.4318 C.ar    1  UNL1        0.0000
     20 C          65.4051   96.7108    9.7615 C.ar    1  UNL1        0.0000
     21 C          65.6440   95.5627   10.6968 C.ar    1  UNL1        0.0001
     22 C          66.5757   94.4553   10.3024 C.ar    1  UNL1        0.0031
     23 O          63.6196   88.1638   14.4914 O.3     1  UNL1       -0.4755
     24 C          64.4847   86.9888   14.8392 C.3     1  UNL1        0.2054
     25 C          63.9080   85.6042   14.8306 C.3     1  UNL1        0.0473
     26 C          64.6180   84.5005   14.1041 C.3     1  UNL1        0.0038
     27 C          62.8600   84.6163   12.1947 C.3     1  UNL1        0.0000
     28 C          64.0516   83.9587   12.8252 C.3     1  UNL1        0.0001
@<TRIPOS>BOND
     1    27    28    1
     2    28    26    1
     3    26    25    1
     4    25    24    1
     5    24    23    1
     6    23     1    1
     7     1     2   ar
     8     2     3   ar
     9     3     4   ar
    10     4    11    1
    11    11    12    2
    12    11    13    1
    13    13    14   ar
    14    14    15   ar
    15    15    16   ar
    16    16    17   ar
    17    17    18   ar
    18    18    19   ar
    19    19    20   ar
    20    20    21   ar
    21    21    22   ar
    22     4     5   ar
    23     5     6   ar
    24     6     7   ar
    25     7     8   ar
    26     8     9   ar
    27     9    10   ar
    28    10     1   ar
    29    22    13   ar
    30    10     5   ar
    31    22    17   ar
@<TRIPOS>MOLECULE
*****
 28 31 0 0 0
SMALL
GASTEIGER

@<TRIPOS>ATOM
      1 C          60.6227   88.4782    9.3591 C.ar    1  UNL1        0.1385
      2 C          60.3817   87.0042    9.2203 C.ar    1  UNL1        0.0370
      3 C          61.1086   86.0385   10.1085 C.ar    1  UNL1        0.0063
      4 C          62.0765   86.5467   11.1356 C.ar    1  UNL1        0.0391
      5 C          62.3175   88.0208   11.2744 C.ar    1  UNL1        0.0060
      6 C          63.2853   88.5290   12.3015 C.ar    1  UNL1        0.0002
      7 C          63.5263   90.0029   12.4403 C.ar    1  UNL1        0.0000
      8 C          62.7994   90.9687   11.5521 C.ar    1  UNL1        0.0001
      9 C          61.8315   90.4605   10.5250 C.ar    1  UNL1        0.0030
     10 C          61.5906   88.9865   10.3862 C.ar    1  UNL1        0.0341
     11 C          62.8034   85.5810   12.0238 C.2     1  UNL1        0.1955
     12 O          63.2167   85.9970   13.4044 O.2     1  UNL1       -0.2866
     13 C          63.1170   84.1993   11.5314 C.ar    1  UNL1        0.0389
     14 C          63.7956   84.0110   10.2070 C.ar    1  UNL1        0.0032
     15 C          64.1092   82.6293    9.7146 C.ar    1  UNL1        0.0001
     16 C          63.7441   81.4357   10.5467 C.ar    1  UNL1        0.0000
     17 C          63.0655   81.6239   11.8710 C.ar    1  UNL1        0.0001
     18 C          62.7005   80.4304   12.7030 C.ar    1  UNL1        0.0000
     19 C          62.0218   80.6187   14.0275 C.ar    1  UNL1        0.0000
     20 C          61.7082   82.0004   14.5198 C.ar    1  UNL1        0.0000
     21 C          62.0733   83.1939   13.6878 C.ar    1  UNL1        0.0001
     22 C          62.7519   83.0057   12.3634 C.ar    1  UNL1        0.0031
     23 O          59.8957   89.4439    8.4709 O.3     1  UNL1       -0.4755
     24 C          59.4000   88.9995    7.1268 C.3     1  UNL1        0.2054
     25 C          59.4120   89.9540    5.9697 C.3     1  UNL1        0.0473
     26 C          58.1629   90.6961    5.5967 C.3     1  UNL1        0.0038
     27 C          59.5588   92.3276    4.1341 C.3     1  UNL1        0.0000
     28 C          58.2483   91.9273    4.7441 C.3     1  UNL1        0.0001
@<TRIPOS>BOND
     1    27    28    1
     2    28    26    1
     3    26    25    1
     4    25    24    1
     5    24    23    1
     6    23     1    1
     7     1     2   ar
     8     2     3   ar
     9     3     4   ar
    10     4    11    1
    11    11    12    2
    12    11    13    1
    13    13    14   ar
    14    14    15   ar
    15    15    16   ar
    16    16    17   ar
    17    17    18   ar
    18    18    19   ar
    19    19    20   ar
    20    20    21   ar
    21    21    22   ar
    22     4     5   ar
    23     5     6   ar
    24     6     7   ar
    25     7     8   ar
    26     8     9   ar
    27     9    10   ar
    28    10     1   ar
    29    22    13   ar
    30    10     5   ar
    31    22    17   ar
@<TRIPOS>MOLECULE
*****
 28 31 0 0 0
SMALL
GASTEIGER

@<TRIPOS>ATOM
      1 C          62.6436   85.6669   11.3590 C.ar    1  UNL1        0.1385
      2 C          62.0756   86.8756   10.6760 C.ar    1  UNL1        0.0370
      3 C          62.2489   88.2339   11.2885 C.ar    1  UNL1        0.0063
      4 C          62.9903   88.3835   12.5838 C.ar    1  UNL1        0.0391
      5 C          63.5584   87.1748   13.2668 C.ar    1  UNL1        0.0060
      6 C          64.2998   87.3243   14.5621 C.ar    1  UNL1        0.0002
      7 C          64.8678   86.1157   15.2450 C.ar    1  UNL1        0.0000
      8 C          64.6944   84.7574   14.6326 C.ar    1  UNL1        0.0001
      9 C          63.9530   84.6078   13.3373 C.ar    1  UNL1        0.0030
     10 C          63.3850   85.8165   12.6544 C.ar    1  UNL1        0.0341
     11 C          63.1637   89.7417   13.1962 C.2     1  UNL1        0.1955
     12 O          62.5543   90.0451   14.5329 O.2     1  UNL1       -0.2866
     13 C          63.9464   90.7966   12.4720 C.ar    1  UNL1        0.0389
     14 C          63.5402   91.2158   11.0902 C.ar    1  UNL1        0.0032
     15 C          64.3230   92.2707   10.3659 C.ar    1  UNL1        0.0001
     16 C          65.5119   92.9064   11.0235 C.ar    1  UNL1        0.0000
     17 C          65.9180   92.4873   12.4053 C.ar    1  UNL1        0.0001
     18 C          67.1069   93.1230   13.0628 C.ar    1  UNL1        0.0000
     19 C          67.5131   92.7039   14.4446 C.ar    1  UNL1        0.0000
     20 C          66.7304   91.6490   15.1688 C.ar    1  UNL1        0.0000
     21 C          65.5415   91.0132   14.5113 C.ar    1  UNL1        0.0001
     22 C          65.1353   91.4324   13.1295 C.ar    1  UNL1        0.0031
     23 O          62.4702   84.3087   10.7465 O.3     1  UNL1       -0.4755
     24 C          63.6132   83.6608   10.0228 C.3     1  UNL1        0.2054
     25 C          64.1049   82.3107   10.4536 C.3     1  UNL1        0.0473
     26 C          63.1496   81.3196   11.0494 C.3     1  UNL1        0.0038
     27 C          61.9170   81.4515   13.3327 C.3     1  UNL1        0.0000
     28 C          63.1332   81.0916   12.5319 C.3     1  UNL1        0.0001
@<TRIPOS>BOND
     1    27    28    1
     2    28    26    1
     3    26    25    1
     4    25    24    1
     5    24    23    1
     6    23     1    1
     7     1     2   ar
     8     2     3   ar
     9     3     4   ar
    10     4    11    1
    11    11    12    2
    12    11    13    1
    13    13    14   ar
    14    14    15   ar
    15    15    16   ar
    16    16    17   ar
    17    17    18   ar
    18    18    19   ar
    19    19    20   ar
    20    20    21   ar
    21    21    22   ar
    22     4     5   ar
    23     5     6   ar
    24     6     7   ar
    25     7     8   ar
    26     8     9   ar
    27     9    10   ar
    28    10     1   ar
    29    22    13   ar
    30    10     5   ar
    31    22    17   ar
@<TRIPOS>MOLECULE
*****
 28 31 0 0 0
SMALL
GASTEIGER

@<TRIPOS>ATOM
      1 C          62.2491   85.5847   10.4942 C.ar    1  UNL1        0.1385
      2 C          62.9569   86.1251   11.7013 C.ar    1  UNL1        0.0370
      3 C          62.8206   87.5740   12.0646 C.ar    1  UNL1        0.0063
      4 C          61.9765   88.4826   11.2209 C.ar    1  UNL1        0.0391
      5 C          61.2687   87.9423   10.0137 C.ar    1  UNL1        0.0060
      6 C          60.4246   88.8509    9.1700 C.ar    1  UNL1        0.0002
      7 C          59.7169   88.3105    7.9629 C.ar    1  UNL1        0.0000
      8 C          59.8532   86.8616    7.5996 C.ar    1  UNL1        0.0001
      9 C          60.6973   85.9530    8.4433 C.ar    1  UNL1        0.0030
     10 C          61.4050   86.4933    9.6504 C.ar    1  UNL1        0.0341
     11 C          61.8402   89.9315   11.5842 C.2     1  UNL1        0.1955
     12 O          60.5013   90.4842   11.9741 O.2     1  UNL1       -0.2866
     13 C          63.0427   90.8278   11.5576 C.ar    1  UNL1        0.0389
     14 C          63.4664   91.4765   10.2731 C.ar    1  UNL1        0.0032
     15 C          64.6689   92.3727   10.2465 C.ar    1  UNL1        0.0001
     16 C          65.4477   92.6203   11.5043 C.ar    1  UNL1        0.0000
     17 C          65.0241   91.9716   12.7887 C.ar    1  UNL1        0.0001
     18 C          65.8030   92.2192   14.0465 C.ar    1  UNL1        0.0000
     19 C          65.3793   91.5705   15.3310 C.ar    1  UNL1        0.0000
     20 C          64.1768   90.6743   15.3576 C.ar    1  UNL1        0.0000
     21 C          63.3980   90.4267   14.0998 C.ar    1  UNL1        0.0001
     22 C          63.8216   91.0753   12.8154 C.ar    1  UNL1        0.0031
     23 O          62.3855   84.1358   10.1309 O.3     1  UNL1       -0.4755
     24 C          63.7442   83.5038   10.0646 C.3     1  UNL1        0.2054
     25 C          64.2356   82.6608   11.2039 C.3     1  UNL1        0.0473
     26 C          63.3435   82.3961   12.3804 C.3     1  UNL1        0.0038
     27 C          61.8209   80.7811   13.7307 C.3     1  UNL1        0.0000
     28 C          62.7376   81.0373   12.5715 C.3     1  UNL1        0.0001
@<TRIPOS>BOND
     1    27    28    1
     2    28    26    1
     3    26    25    1
     4    25    24    1
     5    24    23    1
     6    23     1    1
     7     1     2   ar
     8     2     3   ar
     9     3     4   ar
    10     4    11    1
    11    11    12    2
    12    11    13    1
    13    13    14   ar
    14    14    15   ar
    15    15    16   ar
    16    16    17   ar
    17    17    18   ar
    18    18    19   ar
    19    19    20   ar
    20    20    21   ar
    21    21    22   ar
    22     4     5   ar
    23     5     6   ar
    24     6     7   ar
    25     7     8   ar
    26     8     9   ar
    27     9    10   ar
    28    10     1   ar
    29    22    13   ar
    30    10     5   ar
    31    22    17   ar
@<TRIPOS>MOLECULE
*****
 28 31 0 0 0
SMALL
GASTEIGER

@<TRIPOS>ATOM
      1 C          62.6470   89.9914   12.1939 C.ar    1  UNL1        0.1385
      2 C          63.0808   90.5966   10.8918 C.ar    1  UNL1        0.0370
      3 C          64.2007   91.5941   10.8644 C.ar    1  UNL1        0.0063
      4 C          64.8868   91.9865   12.1392 C.ar    1  UNL1        0.0391
      5 C          64.4530   91.3814   13.4415 C.ar    1  UNL1        0.0060
      6 C          65.1392   91.7738   14.7163 C.ar    1  UNL1        0.0002
      7 C          64.7054   91.1686   16.0184 C.ar    1  UNL1        0.0000
      8 C          63.5855   90.1711   16.0457 C.ar    1  UNL1        0.0001
      9 C          62.8994   89.7787   14.7709 C.ar    1  UNL1        0.0030
     10 C          63.3332   90.3838   13.4688 C.ar    1  UNL1        0.0341
     11 C          66.0067   92.9841   12.1119 C.2     1  UNL1        0.1955
     12 O          66.3363   93.7755   13.3429 O.2     1  UNL1       -0.2866
     13 C          66.7969   93.1903   10.8538 C.ar    1  UNL1        0.0389
     14 C          67.8185   92.1750   10.4348 C.ar    1  UNL1        0.0032
     15 C          68.6087   92.3812    9.1766 C.ar    1  UNL1        0.0001
     16 C          68.3773   93.6027    8.3374 C.ar    1  UNL1        0.0000
     17 C          67.3558   94.6180    8.7563 C.ar    1  UNL1        0.0001
     18 C          67.1244   95.8396    7.9170 C.ar    1  UNL1        0.0000
     19 C          66.1028   96.8549    8.3360 C.ar    1  UNL1        0.0000
     20 C          65.3126   96.6487    9.5942 C.ar    1  UNL1        0.0000
     21 C          65.5440   95.4272   10.4334 C.ar    1  UNL1        0.0001
     22 C          66.5655   94.4118   10.0145 C.ar    1  UNL1        0.0031
     23 O          61.5272   88.9939   12.2212 O.3     1  UNL1       -0.4755
     24 C          60.9570   88.4710   10.9361 C.3     1  UNL1        0.2054
     25 C          61.0271   87.0050   10.6261 C.3     1  UNL1        0.0473
     26 C          61.4331   86.5466    9.2567 C.3     1  UNL1        0.0038
     27 C          59.2516   87.0887    7.9540 C.3     1  UNL1        0.0000
     28 C          60.3865   86.1556    8.2558 C.3     1  UNL1        0.0001
@<TRIPOS>BOND
     1    27    28    1
     2    28    26    1
     3    26    25    1
     4    25    24    1
     5    24    23    1
     6    23     1    1
     7     1     2   ar
     8     2     3   ar
     9     3     4   ar
    10     4    11    1
    11    11    12    2
    12    11    13    1
    13    13    14   ar
    14    14    15   ar
    15    15    16   ar
    16    16    17   ar
    17    17    18   ar
    18    18    19   ar
    19    19    20   ar
    20    20    21   ar
    21    21    22   ar
    22     4     5   ar
    23     5     6   ar
    24     6     7   ar
    25     7     8   ar
    26     8     9   ar
    27     9    10   ar
    28    10     1   ar
    29    22    13   ar
    30    10     5   ar
    31    22    17   ar
@<TRIPOS>MOLECULE
*****
 28 31 0 0 0
SMALL
GASTEIGER

@<TRIPOS>ATOM
      1 C          62.3662   86.7131   11.1123 C.ar    1  UNL1        0.1385
      2 C          62.0001   88.0850   10.6287 C.ar    1  UNL1        0.0370
      3 C          62.3882   89.2915   11.4311 C.ar    1  UNL1        0.0063
      4 C          63.1423   89.1261   12.7171 C.ar    1  UNL1        0.0391
      5 C          63.5084   87.7542   13.2008 C.ar    1  UNL1        0.0060
      6 C          64.2626   87.5888   14.4868 C.ar    1  UNL1        0.0002
      7 C          64.6287   86.2169   14.9704 C.ar    1  UNL1        0.0000
      8 C          64.2406   85.0105   14.1680 C.ar    1  UNL1        0.0001
      9 C          63.4865   85.1758   12.8820 C.ar    1  UNL1        0.0030
     10 C          63.1204   86.5477   12.3984 C.ar    1  UNL1        0.0341
     11 C          63.5303   90.3326   13.5195 C.2     1  UNL1        0.1955
     12 O          62.9824   90.5211   14.9031 O.2     1  UNL1       -0.2866
     13 C          64.4663   91.3505   12.9383 C.ar    1  UNL1        0.0389
     14 C          64.3913   91.6918   11.4795 C.ar    1  UNL1        0.0032
     15 C          65.3272   92.7098   10.8984 C.ar    1  UNL1        0.0001
     16 C          66.3381   93.3865   11.7759 C.ar    1  UNL1        0.0000
     17 C          66.4131   93.0452   13.2346 C.ar    1  UNL1        0.0001
     18 C          67.4240   93.7220   14.1122 C.ar    1  UNL1        0.0000
     19 C          67.4990   93.3807   15.5710 C.ar    1  UNL1        0.0000
     20 C          66.5631   92.3627   16.1521 C.ar    1  UNL1        0.0000
     21 C          65.5522   91.6860   15.2746 C.ar    1  UNL1        0.0001
     22 C          65.4772   92.0272   13.8159 C.ar    1  UNL1        0.0031
     23 O          61.9782   85.5066   10.3099 O.3     1  UNL1       -0.4755
     24 C          62.5718   85.2877    8.9499 C.3     1  UNL1        0.2054
     25 C          61.8476   85.7716    7.7287 C.3     1  UNL1        0.0473
     26 C          60.3480   85.7576    7.6912 C.3     1  UNL1        0.0038
     27 C          59.3019   88.1317    7.5541 C.3     1  UNL1        0.0000
     28 C          59.5715   86.8735    8.3249 C.3     1  UNL1        0.0001
@<TRIPOS>BOND
     1    27    28    1
     2    28    26    1
     3    26    25    1
     4    25    24    1
     5    24    23    1
     6    23     1    1
     7     1     2   ar
     8     2     3   ar
     9     3     4   ar
    10     4    11    1
    11    11    12    2
    12    11    13    1
    13    13    14   ar
    14    14    15   ar
    15    15    16   ar
    16    16    17   ar
    17    17    18   ar
    18    18    19   ar
    19    19    20   ar
    20    20    21   ar
    21    21    22   ar
    22     4     5   ar
    23     5     6   ar
    24     6     7   ar
    25     7     8   ar
    26     8     9   ar
    27     9    10   ar
    28    10     1   ar
    29    22    13   ar
    30    10     5   ar
    31    22    17   ar
@<TRIPOS>MOLECULE
*****
 28 31 0 0 0
SMALL
GASTEIGER

@<TRIPOS>ATOM
      1 C          64.7302   89.8339   13.8903 C.ar    1  UNL1        0.1385
      2 C          64.3122   88.4861   14.3988 C.ar    1  UNL1        0.0370
      3 C          63.3576   87.6469   13.6022 C.ar    1  UNL1        0.0063
      4 C          62.8211   88.1556   12.2971 C.ar    1  UNL1        0.0391
      5 C          63.2391   89.5035   11.7885 C.ar    1  UNL1        0.0060
      6 C          62.7026   90.0121   10.4834 C.ar    1  UNL1        0.0002
      7 C          63.1206   91.3600    9.9749 C.ar    1  UNL1        0.0000
      8 C          64.0752   92.1991   10.7716 C.ar    1  UNL1        0.0001
      9 C          64.6117   91.6905   12.0767 C.ar    1  UNL1        0.0030
     10 C          64.1937   90.3427   12.5851 C.ar    1  UNL1        0.0341
     11 C          61.8666   87.3164   11.5004 C.2     1  UNL1        0.1955
     12 O          60.3891   87.5510   11.6115 O.2     1  UNL1       -0.2866
     13 C          62.3894   86.2428   10.5928 C.ar    1  UNL1        0.0389
     14 C          62.5002   86.4954    9.1183 C.ar    1  UNL1        0.0032
     15 C          63.0230   85.4217    8.2106 C.ar    1  UNL1        0.0001
     16 C          63.4350   84.0954    8.7774 C.ar    1  UNL1        0.0000
     17 C          63.3242   83.8428   10.2518 C.ar    1  UNL1        0.0001
     18 C          63.7362   82.5165   10.8185 C.ar    1  UNL1        0.0000
     19 C          63.6253   82.2639   12.2930 C.ar    1  UNL1        0.0000
     20 C          63.1025   83.3375   13.2006 C.ar    1  UNL1        0.0000
     21 C          62.6905   84.6638   12.6339 C.ar    1  UNL1        0.0001
     22 C          62.8013   84.9165   11.1595 C.ar    1  UNL1        0.0031
     23 O          65.6848   90.6731   14.6870 O.3     1  UNL1       -0.4755
     24 C          65.1642   91.7709   15.5665 C.3     1  UNL1        0.2054
     25 C          66.0543   92.9193   15.9390 C.3     1  UNL1        0.0473
     26 C          67.0650   93.4340   14.9573 C.3     1  UNL1        0.0038
     27 C          68.9899   92.3069   16.2893 C.3     1  UNL1        0.0000
     28 C          68.4937   92.9860   15.0474 C.3     1  UNL1        0.0001
@<TRIPOS>BOND
     1    27    28    1
     2    28    26    1
     3    26    25    1
     4    25    24    1
     5    24    23    1
     6    23     1    1
     7     1     2   ar
     8     2     3   ar
     9     3     4   ar
    10     4    11    1
    11    11    12    2
    12    11    13    1
    13    13    14   ar
    14    14    15   ar
    15    15    16   ar
    16    16    17   ar
    17    17    18   ar
    18    18    19   ar
    19    19    20   ar
    20    20    21   ar
    21    21    22   ar
    22     4     5   ar
    23     5     6   ar
    24     6     7   ar
    25     7     8   ar
    26     8     9   ar
    27     9    10   ar
    28    10     1   ar
    29    22    13   ar
    30    10     5   ar
    31    22    17   ar
