@<TRIPOS>MOLECULE
*****
 33 36 0 0 0
SMALL
GASTEIGER

@<TRIPOS>ATOM
      1 C          63.9213   89.9081   14.0655 C.ar    1  UNL1        0.0065
      2 C          63.3784   90.4492   15.3548 C.ar    1  UNL1       -0.0018
      3 C          63.1792   89.5351   16.5273 C.ar    1  UNL1       -0.0001
      4 C          63.5230   88.0796   16.4104 C.ar    1  UNL1        0.0045
      5 C          64.0660   87.5385   15.1211 C.ar    1  UNL1        0.0531
      6 C          64.2651   88.4527   13.9487 C.ar    1  UNL1        0.0027
      7 N          65.2007   91.8535   12.7527 N.am    1  UNL1       -0.2435
      8 C          65.0222   92.5343   11.4281 C.2     1  UNL1        0.2413
      9 O          65.8831   93.6327   10.8782 O.2     1  UNL1       -0.2736
     10 C          63.8317   91.9240   10.7499 C.3     1  UNL1        0.1448
     11 S          63.2743   90.8658   11.6553 S.3     1  UNL1       -0.1066
     12 C          64.1205   90.8223   12.8931 C.3     1  UNL1        0.1510
     13 C          67.7090   91.8786   13.4296 C.ar    1  UNL1        0.1523
     14 C          68.7797   92.1765   14.4369 C.ar    1  UNL1        0.0382
     15 C          68.4130   92.7475   15.7746 C.ar    1  UNL1        0.0032
     16 C          66.9756   93.0204   16.1050 C.ar    1  UNL1        0.0015
     17 C          65.9048   92.7224   15.0978 C.ar    1  UNL1        0.0180
     18 C          66.2715   92.1515   13.7600 C.ar    1  UNL1        0.0889
     19 C          68.6144   92.2036   11.0162 C.3     1  UNL1        0.2525
     20 O          68.0757   91.3076   12.0918 O.3     1  UNL1       -0.4702
     21 C          64.4098   86.0831   15.0041 C.2     1  UNL1        0.2458
     22 O          65.8342   85.6637   14.7916 O.2     1  UNL1       -0.2701
     23 N          63.3292   85.0472   15.0997 N.am    1  UNL1       -0.3005
     24 H          62.3943   85.3225   15.2391 H       1  UNL1        0.1497
     25 C          63.6729   83.5918   14.9827 C.3     1  UNL1        0.0944
     26 C          63.1923   82.8001   13.8029 C.3     1  UNL1        0.0476
     27 C          63.1634   83.4270   12.4404 C.ar    1  UNL1       -0.0204
     28 C          62.3632   84.6736   12.2053 C.ar    1  UNL1       -0.0037
     29 C          62.3342   85.3006   10.8429 C.ar    1  UNL1        0.0064
     30 C          63.1057   84.6808    9.7156 C.ar    1  UNL1        0.0345
     31 BR         63.0769   85.3077    8.3532 Br      1  UNL1       -0.0490
     32 C          63.9060   83.4342    9.9508 C.ar    1  UNL1        0.0064
     33 C          63.9349   82.8072   11.3131 C.ar    1  UNL1       -0.0037
@<TRIPOS>BOND
     1    19    20    1
     2    20    13    1
     3    13    14   ar
     4    14    15   ar
     5    15    16   ar
     6    16    17   ar
     7    17    18   ar
     8    18     7    1
     9     7     8   am
    10     8     9    2
    11     8    10    1
    12    10    11    1
    13    11    12    1
    14    12     1    1
    15     1     2   ar
    16     2     3   ar
    17     3     4   ar
    18     4     5   ar
    19     5    21    1
    20    21    22    2
    21    21    23   am
    22    23    25    1
    23    25    26    1
    24    26    27    1
    25    27    28   ar
    26    28    29   ar
    27    29    30   ar
    28    30    31    1
    29    30    32   ar
    30    32    33   ar
    31     5     6   ar
    32    18    13   ar
    33    12     7    1
    34     6     1   ar
    35    33    27   ar
    36    23    24    1
@<TRIPOS>MOLECULE
*****
 33 36 0 0 0
SMALL
GASTEIGER

@<TRIPOS>ATOM
      1 C          62.0373   89.2674   10.3588 C.ar    1  UNL1        0.0065
      2 C          62.6465   90.6043   10.0564 C.ar    1  UNL1       -0.0018
      3 C          63.5943   91.2350   11.0330 C.ar    1  UNL1       -0.0001
      4 C          63.9331   90.5286   12.3122 C.ar    1  UNL1        0.0045
      5 C          63.3239   89.1916   12.6147 C.ar    1  UNL1        0.0531
      6 C          62.3761   88.5611   11.6380 C.ar    1  UNL1        0.0027
      7 N          60.9794   87.1714    9.0810 N.am    1  UNL1       -0.2435
      8 C          59.9072   86.9898    8.0478 C.2     1  UNL1        0.2413
      9 O          59.4651   85.6844    7.4560 O.2     1  UNL1       -0.2736
     10 C          59.3546   88.3429    7.7105 C.3     1  UNL1        0.1448
     11 S          60.0853   89.3608    8.5352 S.3     1  UNL1       -0.1066
     12 C          61.0895   88.6368    9.3821 C.3     1  UNL1        0.1510
     13 C          62.7496   85.2824    8.8617 C.ar    1  UNL1        0.1523
     14 C          63.5680   84.1904    9.4843 C.ar    1  UNL1        0.0382
     15 C          63.4347   83.8954   10.9489 C.ar    1  UNL1        0.0032
     16 C          62.4830   84.6924   11.7909 C.ar    1  UNL1        0.0015
     17 C          61.6645   85.7844   11.1683 C.ar    1  UNL1        0.0180
     18 C          61.7978   86.0794    9.7037 C.ar    1  UNL1        0.0889
     19 C          62.4332   84.5663    6.3843 C.3     1  UNL1        0.2525
     20 O          62.8828   85.5774    7.3970 O.3     1  UNL1       -0.4702
     21 C          63.6626   88.4853   13.8939 C.2     1  UNL1        0.2458
     22 O          63.4630   89.1785   15.2090 O.2     1  UNL1       -0.2701
     23 N          64.2010   87.0857   13.8579 N.am    1  UNL1       -0.3005
     24 H          64.3320   86.6307   12.9947 H       1  UNL1        0.1497
     25 C          64.5397   86.3792   15.1370 C.3     1  UNL1        0.0944
     26 C          63.5605   85.4201   15.7461 C.3     1  UNL1        0.0476
     27 C          63.3130   84.0892   15.0997 C.ar    1  UNL1       -0.0204
     28 C          64.4468   83.3434   14.4610 C.ar    1  UNL1       -0.0037
     29 C          64.1994   82.0125   13.8146 C.ar    1  UNL1        0.0064
     30 C          62.8181   81.4277   13.8069 C.ar    1  UNL1        0.0345
     31 BR         62.5706   80.0970   13.1605 Br      1  UNL1       -0.0490
     32 C          61.6843   82.1737   14.4456 C.ar    1  UNL1        0.0064
     33 C          61.9317   83.5044   15.0920 C.ar    1  UNL1       -0.0037
@<TRIPOS>BOND
     1    19    20    1
     2    20    13    1
     3    13    14   ar
     4    14    15   ar
     5    15    16   ar
     6    16    17   ar
     7    17    18   ar
     8    18     7    1
     9     7     8   am
    10     8     9    2
    11     8    10    1
    12    10    11    1
    13    11    12    1
    14    12     1    1
    15     1     2   ar
    16     2     3   ar
    17     3     4   ar
    18     4     5   ar
    19     5    21    1
    20    21    22    2
    21    21    23   am
    22    23    25    1
    23    25    26    1
    24    26    27    1
    25    27    28   ar
    26    28    29   ar
    27    29    30   ar
    28    30    31    1
    29    30    32   ar
    30    32    33   ar
    31     5     6   ar
    32    18    13   ar
    33    12     7    1
    34     6     1   ar
    35    33    27   ar
    36    23    24    1
@<TRIPOS>MOLECULE
*****
 33 36 0 0 0
SMALL
GASTEIGER

@<TRIPOS>ATOM
      1 C          62.2116   86.6773   11.1417 C.ar    1  UNL1        0.0065
      2 C          60.7303   86.8062   10.9443 C.ar    1  UNL1       -0.0018
      3 C          60.0734   88.1504   11.0515 C.ar    1  UNL1       -0.0001
      4 C          60.8980   89.3659   11.3561 C.ar    1  UNL1        0.0045
      5 C          62.3794   89.2370   11.5536 C.ar    1  UNL1        0.0531
      6 C          63.0361   87.8927   11.4464 C.ar    1  UNL1        0.0027
      7 N          63.4064   84.5211   12.1753 N.am    1  UNL1       -0.2435
      8 C          63.9730   83.2509   11.6136 C.2     1  UNL1        0.2413
      9 O          64.6147   82.1475   12.4014 O.2     1  UNL1       -0.2736
     10 C          63.7851   83.2778   10.1256 C.3     1  UNL1        0.1448
     11 S          63.1024   84.5646    9.7677 S.3     1  UNL1       -0.1066
     12 C          62.8684   85.3330   11.0346 C.3     1  UNL1        0.1510
     13 C          62.4950   84.1751   14.5836 C.ar    1  UNL1        0.1523
     14 C          62.4706   84.5649   16.0318 C.ar    1  UNL1        0.0382
     15 C          63.3334   85.6906   16.5201 C.ar    1  UNL1        0.0032
     16 C          64.2205   86.4264   15.5601 C.ar    1  UNL1        0.0015
     17 C          64.2448   86.0366   14.1119 C.ar    1  UNL1        0.0180
     18 C          63.3821   84.9109   13.6236 C.ar    1  UNL1        0.0889
     19 C          61.9998   81.6303   14.4134 C.3     1  UNL1        0.2525
     20 O          61.6322   83.0493   14.0953 O.3     1  UNL1       -0.4702
     21 C          63.2040   90.4524   11.8582 C.2     1  UNL1        0.2458
     22 O          63.2976   91.5655   10.8570 O.2     1  UNL1       -0.2701
     23 N          63.9349   90.5548   13.1640 N.am    1  UNL1       -0.3005
     24 H          63.8734   89.8242   13.8211 H       1  UNL1        0.1497
     25 C          64.7595   91.7701   13.4688 C.3     1  UNL1        0.0944
     26 C          66.1659   91.8700   12.9568 C.3     1  UNL1        0.0476
     27 C          66.4979   92.8383   11.8602 C.ar    1  UNL1       -0.0204
     28 C          67.2179   92.3636   10.6331 C.ar    1  UNL1       -0.0037
     29 C          67.5500   93.3318    9.5365 C.ar    1  UNL1        0.0064
     30 C          67.1619   94.7748    9.6673 C.ar    1  UNL1        0.0345
     31 BR         67.4938   95.7431    8.5709 Br      1  UNL1       -0.0490
     32 C          66.4418   95.2495   10.8945 C.ar    1  UNL1        0.0064
     33 C          66.1098   94.2814   11.9910 C.ar    1  UNL1       -0.0037
@<TRIPOS>BOND
     1    19    20    1
     2    20    13    1
     3    13    14   ar
     4    14    15   ar
     5    15    16   ar
     6    16    17   ar
     7    17    18   ar
     8    18     7    1
     9     7     8   am
    10     8     9    2
    11     8    10    1
    12    10    11    1
    13    11    12    1
    14    12     1    1
    15     1     2   ar
    16     2     3   ar
    17     3     4   ar
    18     4     5   ar
    19     5    21    1
    20    21    22    2
    21    21    23   am
    22    23    25    1
    23    25    26    1
    24    26    27    1
    25    27    28   ar
    26    28    29   ar
    27    29    30   ar
    28    30    31    1
    29    30    32   ar
    30    32    33   ar
    31     5     6   ar
    32    18    13   ar
    33    12     7    1
    34     6     1   ar
    35    33    27   ar
    36    23    24    1
@<TRIPOS>MOLECULE
*****
 33 36 0 0 0
SMALL
GASTEIGER

@<TRIPOS>ATOM
      1 C          62.7476   86.1619   12.1707 C.ar    1  UNL1        0.0065
      2 C          62.0694   85.3014   11.1462 C.ar    1  UNL1       -0.0018
      3 C          61.4564   85.9269    9.9285 C.ar    1  UNL1       -0.0001
      4 C          61.5215   87.4130    9.7352 C.ar    1  UNL1        0.0045
      5 C          62.1997   88.2735   10.7598 C.ar    1  UNL1        0.0531
      6 C          62.8128   87.6479   11.9775 C.ar    1  UNL1        0.0027
      7 N          63.7505   84.0956   13.5382 N.am    1  UNL1       -0.2435
      8 C          64.3222   83.9105   14.9125 C.2     1  UNL1        0.2413
      9 O          64.8396   82.6248   15.4864 O.2     1  UNL1       -0.2736
     10 C          64.2858   85.2368   15.6122 C.3     1  UNL1        0.1448
     11 S          63.6915   86.2416   14.6703 S.3     1  UNL1       -0.1066
     12 C          63.3607   85.5363   13.3885 C.3     1  UNL1        0.1510
     13 C          62.6632   81.8769   12.7347 C.ar    1  UNL1        0.1523
     14 C          62.5084   80.8088   11.6930 C.ar    1  UNL1        0.0382
     15 C          63.2860   80.8913   10.4129 C.ar    1  UNL1        0.0032
     16 C          64.2184   82.0419   10.1746 C.ar    1  UNL1        0.0015
     17 C          64.3732   83.1100   11.2163 C.ar    1  UNL1        0.0180
     18 C          63.5956   83.0275   12.4964 C.ar    1  UNL1        0.0889
     19 C          60.7602   80.8116   14.1467 C.3     1  UNL1        0.2525
     20 O          61.8856   81.7944   14.0148 O.3     1  UNL1       -0.4702
     21 C          62.2649   89.7596   10.5666 C.2     1  UNL1        0.2458
     22 O          61.0008   90.5654   10.5157 O.2     1  UNL1       -0.2701
     23 N          63.5942   90.4398   10.4242 N.am    1  UNL1       -0.3005
     24 H          64.4239   89.9108   10.4576 H       1  UNL1        0.1497
     25 C          63.6595   91.9258   10.2310 C.3     1  UNL1        0.0944
     26 C          64.9125   92.6732   10.5795 C.3     1  UNL1        0.0476
     27 C          65.4146   92.6776   11.9930 C.ar    1  UNL1       -0.0204
     28 C          66.2293   93.8322   12.4958 C.ar    1  UNL1       -0.0037
     29 C          66.7315   93.8368   13.9093 C.ar    1  UNL1        0.0064
     30 C          66.4189   92.6865   14.8198 C.ar    1  UNL1        0.0345
     31 BR         66.9210   92.6909   16.2333 Br      1  UNL1       -0.0490
     32 C          65.6042   91.5318   14.3170 C.ar    1  UNL1        0.0064
     33 C          65.1020   91.5273   12.9036 C.ar    1  UNL1       -0.0037
@<TRIPOS>BOND
     1    19    20    1
     2    20    13    1
     3    13    14   ar
     4    14    15   ar
     5    15    16   ar
     6    16    17   ar
     7    17    18   ar
     8    18     7    1
     9     7     8   am
    10     8     9    2
    11     8    10    1
    12    10    11    1
    13    11    12    1
    14    12     1    1
    15     1     2   ar
    16     2     3   ar
    17     3     4   ar
    18     4     5   ar
    19     5    21    1
    20    21    22    2
    21    21    23   am
    22    23    25    1
    23    25    26    1
    24    26    27    1
    25    27    28   ar
    26    28    29   ar
    27    29    30   ar
    28    30    31    1
    29    30    32   ar
    30    32    33   ar
    31     5     6   ar
    32    18    13   ar
    33    12     7    1
    34     6     1   ar
    35    33    27   ar
    36    23    24    1
@<TRIPOS>MOLECULE
*****
 33 36 0 0 0
SMALL
GASTEIGER

@<TRIPOS>ATOM
      1 C          62.0517   85.5741    9.5076 C.ar    1  UNL1        0.0065
      2 C          63.0458   84.8535    8.6460 C.ar    1  UNL1       -0.0018
      3 C          64.0935   83.9842    9.2758 C.ar    1  UNL1       -0.0001
      4 C          64.1469   83.8355   10.7676 C.ar    1  UNL1        0.0045
      5 C          63.1528   84.5561   11.6292 C.ar    1  UNL1        0.0531
      6 C          62.1052   85.4254   10.9992 C.ar    1  UNL1        0.0027
      7 N          60.7768   87.8982    9.1636 N.am    1  UNL1       -0.2435
      8 C          59.6321   88.3644    8.3138 C.2     1  UNL1        0.2413
      9 O          59.0668   89.7534    8.2809 O.2     1  UNL1       -0.2736
     10 C          59.1518   87.1977    7.5026 C.3     1  UNL1        0.1448
     11 S          59.9998   86.0104    7.8510 S.3     1  UNL1       -0.1066
     12 C          61.0041   86.4434    8.8776 C.3     1  UNL1        0.1510
     13 C          61.0719   88.9084   11.5391 C.ar    1  UNL1        0.1523
     14 C          61.8523   89.7494   12.5053 C.ar    1  UNL1        0.0382
     15 C          63.1182   90.4212   12.0624 C.ar    1  UNL1        0.0032
     16 C          63.6037   90.2520   10.6532 C.ar    1  UNL1        0.0015
     17 C          62.8232   89.4110    9.6870 C.ar    1  UNL1        0.0180
     18 C          61.5573   88.7393   10.1299 C.ar    1  UNL1        0.0889
     19 C          58.7472   89.0260   12.6932 C.3     1  UNL1        0.2525
     20 O          59.8059   88.2366   11.9820 O.3     1  UNL1       -0.4702
     21 C          63.2063   84.4075   13.1209 C.2     1  UNL1        0.2458
     22 O          64.4321   83.8421   13.7748 O.2     1  UNL1       -0.2701
     23 N          62.0338   84.8241   13.9586 N.am    1  UNL1       -0.3005
     24 H          61.2293   85.1952   13.5294 H       1  UNL1        0.1497
     25 C          62.0872   84.6755   15.4502 C.3     1  UNL1        0.0944
     26 C          63.1763   85.3477   16.2325 C.3     1  UNL1        0.0476
     27 C          63.4401   86.8124   16.0448 C.ar    1  UNL1       -0.0204
     28 C          62.8682   87.8072   17.0108 C.ar    1  UNL1       -0.0037
     29 C          63.1319   89.2719   16.8232 C.ar    1  UNL1        0.0064
     30 C          63.9676   89.7417   15.6695 C.ar    1  UNL1        0.0345
     31 BR         64.2313   91.2063   15.4818 Br      1  UNL1       -0.0490
     32 C          64.5395   88.7468   14.7035 C.ar    1  UNL1        0.0064
     33 C          64.2758   87.2822   14.8911 C.ar    1  UNL1       -0.0037
@<TRIPOS>BOND
     1    19    20    1
     2    20    13    1
     3    13    14   ar
     4    14    15   ar
     5    15    16   ar
     6    16    17   ar
     7    17    18   ar
     8    18     7    1
     9     7     8   am
    10     8     9    2
    11     8    10    1
    12    10    11    1
    13    11    12    1
    14    12     1    1
    15     1     2   ar
    16     2     3   ar
    17     3     4   ar
    18     4     5   ar
    19     5    21    1
    20    21    22    2
    21    21    23   am
    22    23    25    1
    23    25    26    1
    24    26    27    1
    25    27    28   ar
    26    28    29   ar
    27    29    30   ar
    28    30    31    1
    29    30    32   ar
    30    32    33   ar
    31     5     6   ar
    32    18    13   ar
    33    12     7    1
    34     6     1   ar
    35    33    27   ar
    36    23    24    1
@<TRIPOS>MOLECULE
*****
 33 36 0 0 0
SMALL
GASTEIGER

@<TRIPOS>ATOM
      1 C          62.2906   85.7998   10.7666 C.ar    1  UNL1        0.0065
      2 C          61.0366   85.8391    9.9444 C.ar    1  UNL1       -0.0018
      3 C          60.2593   87.1162    9.8226 C.ar    1  UNL1       -0.0001
      4 C          60.7360   88.3540   10.5231 C.ar    1  UNL1        0.0045
      5 C          61.9900   88.3147   11.3452 C.ar    1  UNL1        0.0531
      6 C          62.7673   87.0376   11.4670 C.ar    1  UNL1        0.0027
      7 N          63.6030   83.9340   12.1600 N.am    1  UNL1       -0.2435
      8 C          64.3123   82.6575   11.8173 C.2     1  UNL1        0.2413
      9 O          64.9980   81.7420   12.7877 O.2     1  UNL1       -0.2736
     10 C          64.2156   82.4573   10.3339 C.3     1  UNL1        0.1448
     11 S          63.4465   83.6100    9.7597 S.3     1  UNL1       -0.1066
     12 C          63.0679   84.5227   10.8883 C.3     1  UNL1        0.1510
     13 C          62.4468   83.9489   14.4866 C.ar    1  UNL1        0.1523
     14 C          62.2986   84.5339   15.8598 C.ar    1  UNL1        0.0382
     15 C          63.1582   85.6892   16.2796 C.ar    1  UNL1        0.0032
     16 C          64.1661   86.2594   15.3262 C.ar    1  UNL1        0.0015
     17 C          64.3144   85.6744   13.9530 C.ar    1  UNL1        0.0180
     18 C          63.4547   84.5191   13.5332 C.ar    1  UNL1        0.0889
     19 C          62.0220   81.3887   14.3626 C.3     1  UNL1        0.2525
     20 O          61.5872   82.7935   14.0667 O.3     1  UNL1       -0.4702
     21 C          62.4668   89.5524   12.0457 C.2     1  UNL1        0.2458
     22 O          62.2378   90.8996   11.4271 O.2     1  UNL1       -0.2701
     23 N          63.1725   89.4430   13.3648 N.am    1  UNL1       -0.3005
     24 H          63.3227   88.5588   13.7708 H       1  UNL1        0.1497
     25 C          63.6492   90.6807   14.0653 C.3     1  UNL1        0.0944
     26 C          64.6241   91.5976   13.3878 C.3     1  UNL1        0.0476
     27 C          65.8918   91.9925   14.0858 C.ar    1  UNL1       -0.0204
     28 C          65.8517   92.4414   15.5164 C.ar    1  UNL1       -0.0037
     29 C          67.1193   92.8363   16.2145 C.ar    1  UNL1        0.0064
     30 C          68.4271   92.7822   15.4817 C.ar    1  UNL1        0.0345
     31 BR         69.6947   93.1770   16.1796 Br      1  UNL1       -0.0490
     32 C          68.4671   92.3333   14.0510 C.ar    1  UNL1        0.0064
     33 C          67.1995   91.9384   13.3531 C.ar    1  UNL1       -0.0037
@<TRIPOS>BOND
     1    19    20    1
     2    20    13    1
     3    13    14   ar
     4    14    15   ar
     5    15    16   ar
     6    16    17   ar
     7    17    18   ar
     8    18     7    1
     9     7     8   am
    10     8     9    2
    11     8    10    1
    12    10    11    1
    13    11    12    1
    14    12     1    1
    15     1     2   ar
    16     2     3   ar
    17     3     4   ar
    18     4     5   ar
    19     5    21    1
    20    21    22    2
    21    21    23   am
    22    23    25    1
    23    25    26    1
    24    26    27    1
    25    27    28   ar
    26    28    29   ar
    27    29    30   ar
    28    30    31    1
    29    30    32   ar
    30    32    33   ar
    31     5     6   ar
    32    18    13   ar
    33    12     7    1
    34     6     1   ar
    35    33    27   ar
    36    23    24    1
@<TRIPOS>MOLECULE
*****
 33 36 0 0 0
SMALL
GASTEIGER

@<TRIPOS>ATOM
      1 C          62.9161   86.5563   11.8751 C.ar    1  UNL1        0.0065
      2 C          63.2109   85.3378   12.6988 C.ar    1  UNL1       -0.0018
      3 C          63.8293   85.4826   14.0577 C.ar    1  UNL1       -0.0001
      4 C          64.1529   86.8460   14.5930 C.ar    1  UNL1        0.0045
      5 C          63.8581   88.0645   13.7693 C.ar    1  UNL1        0.0531
      6 C          63.2398   87.9196   12.4104 C.ar    1  UNL1        0.0027
      7 N          61.1714   87.2362    9.9676 N.am    1  UNL1       -0.2435
      8 C          60.8747   86.7508    8.5797 C.2     1  UNL1        0.2413
      9 O          59.8202   87.2946    7.6620 O.2     1  UNL1       -0.2736
     10 C          61.8176   85.6259    8.2705 C.3     1  UNL1        0.1448
     11 S          62.6972   85.4162    9.4674 S.3     1  UNL1       -0.1066
     12 C          62.2977   86.4113   10.5162 C.3     1  UNL1        0.1510
     13 C          60.9224   89.7675   10.4970 C.ar    1  UNL1        0.1523
     14 C          60.2167   90.8821   11.2109 C.ar    1  UNL1        0.0382
     15 C          59.0543   90.5799   12.1094 C.ar    1  UNL1        0.0032
     16 C          58.5975   89.1631   12.2940 C.ar    1  UNL1        0.0015
     17 C          59.3032   88.0485   11.5800 C.ar    1  UNL1        0.0180
     18 C          60.4656   88.3508   10.6816 C.ar    1  UNL1        0.0889
     19 C          63.1569   91.0161   10.0516 C.3     1  UNL1        0.2525
     20 O          62.0849   90.0698    9.5985 O.3     1  UNL1       -0.4702
     21 C          64.1817   89.4279   14.3045 C.2     1  UNL1        0.2458
     22 O          63.8126   89.7877   15.7131 O.2     1  UNL1       -0.2701
     23 N          64.8745   90.4315   13.4310 N.am    1  UNL1       -0.3005
     24 H          65.1167   90.1953   12.5065 H       1  UNL1        0.1497
     25 C          65.1981   91.7948   13.9661 C.3     1  UNL1        0.0944
     26 C          66.5070   92.4432   13.6250 C.3     1  UNL1        0.0476
     27 C          66.6861   93.1184   12.2974 C.ar    1  UNL1       -0.0204
     28 C          67.2951   92.3677   11.1505 C.ar    1  UNL1       -0.0037
     29 C          67.4743   93.0428    9.8230 C.ar    1  UNL1        0.0064
     30 C          67.0444   94.4685    9.6425 C.ar    1  UNL1        0.0345
     31 BR         67.2235   95.1436    8.3151 Br      1  UNL1       -0.0490
     32 C          66.4353   95.2191   10.7896 C.ar    1  UNL1        0.0064
     33 C          66.2562   94.5441   12.1170 C.ar    1  UNL1       -0.0037
@<TRIPOS>BOND
     1    19    20    1
     2    20    13    1
     3    13    14   ar
     4    14    15   ar
     5    15    16   ar
     6    16    17   ar
     7    17    18   ar
     8    18     7    1
     9     7     8   am
    10     8     9    2
    11     8    10    1
    12    10    11    1
    13    11    12    1
    14    12     1    1
    15     1     2   ar
    16     2     3   ar
    17     3     4   ar
    18     4     5   ar
    19     5    21    1
    20    21    22    2
    21    21    23   am
    22    23    25    1
    23    25    26    1
    24    26    27    1
    25    27    28   ar
    26    28    29   ar
    27    29    30   ar
    28    30    31    1
    29    30    32   ar
    30    32    33   ar
    31     5     6   ar
    32    18    13   ar
    33    12     7    1
    34     6     1   ar
    35    33    27   ar
    36    23    24    1
@<TRIPOS>MOLECULE
*****
 33 36 0 0 0
SMALL
GASTEIGER

@<TRIPOS>ATOM
      1 C          62.7325   84.8801   11.1458 C.ar    1  UNL1        0.0065
      2 C          62.3913   85.0911    9.7004 C.ar    1  UNL1       -0.0018
      3 C          62.1594   86.4783    9.1792 C.ar    1  UNL1       -0.0001
      4 C          62.2687   87.6548   10.1035 C.ar    1  UNL1        0.0045
      5 C          62.6099   87.4438   11.5489 C.ar    1  UNL1        0.0531
      6 C          62.8417   86.0564   12.0700 C.ar    1  UNL1        0.0027
      7 N          63.1032   83.1044   13.1091 N.am    1  UNL1       -0.2435
      8 C          63.3227   81.6218   13.1708 C.2     1  UNL1        0.2413
      9 O          63.5121   80.8097   14.4176 O.2     1  UNL1       -0.2736
     10 C          63.3196   81.0939   11.7668 C.3     1  UNL1        0.1448
     11 S          63.0981   82.2503   10.8372 S.3     1  UNL1       -0.1066
     12 C          62.9643   83.4927   11.6669 C.3     1  UNL1        0.1510
     13 C          64.2811   84.6998   14.7875 C.ar    1  UNL1        0.1523
     14 C          64.2125   85.6306   15.9617 C.ar    1  UNL1        0.0382
     15 C          62.8973   85.8967   16.6319 C.ar    1  UNL1        0.0032
     16 C          61.6506   85.2321   16.1278 C.ar    1  UNL1        0.0015
     17 C          61.7192   84.3013   14.9536 C.ar    1  UNL1        0.0180
     18 C          63.0345   84.0352   14.2834 C.ar    1  UNL1        0.0889
     19 C          66.8525   85.0489   14.6593 C.3     1  UNL1        0.2525
     20 O          65.5965   84.4337   14.1172 O.3     1  UNL1       -0.4702
     21 C          62.7192   88.6201   12.4731 C.2     1  UNL1        0.2458
     22 O          61.8226   89.8078   12.2847 O.2     1  UNL1       -0.2701
     23 N          63.7250   88.6087   13.5858 N.am    1  UNL1       -0.3005
     24 H          64.3134   87.8291   13.7095 H       1  UNL1        0.1497
     25 C          63.8344   89.7849   14.5101 C.3     1  UNL1        0.0944
     26 C          65.1347   90.5222   14.6353 C.3     1  UNL1        0.0476
     27 C          65.4353   91.6732   13.7214 C.ar    1  UNL1       -0.0204
     28 C          64.9368   91.6576   12.3069 C.ar    1  UNL1       -0.0037
     29 C          65.2373   92.8085   11.3930 C.ar    1  UNL1        0.0064
     30 C          66.0364   93.9750   11.8938 C.ar    1  UNL1        0.0345
     31 BR         66.3369   95.1259   10.9801 Br      1  UNL1       -0.0490
     32 C          66.5349   93.9905   13.3085 C.ar    1  UNL1        0.0064
     33 C          66.2344   92.8396   14.2223 C.ar    1  UNL1       -0.0037
@<TRIPOS>BOND
     1    19    20    1
     2    20    13    1
     3    13    14   ar
     4    14    15   ar
     5    15    16   ar
     6    16    17   ar
     7    17    18   ar
     8    18     7    1
     9     7     8   am
    10     8     9    2
    11     8    10    1
    12    10    11    1
    13    11    12    1
    14    12     1    1
    15     1     2   ar
    16     2     3   ar
    17     3     4   ar
    18     4     5   ar
    19     5    21    1
    20    21    22    2
    21    21    23   am
    22    23    25    1
    23    25    26    1
    24    26    27    1
    25    27    28   ar
    26    28    29   ar
    27    29    30   ar
    28    30    31    1
    29    30    32   ar
    30    32    33   ar
    31     5     6   ar
    32    18    13   ar
    33    12     7    1
    34     6     1   ar
    35    33    27   ar
    36    23    24    1
@<TRIPOS>MOLECULE
*****
 33 36 0 0 0
SMALL
GASTEIGER

@<TRIPOS>ATOM
      1 C          60.3486   88.4695    9.2437 C.ar    1  UNL1        0.0065
      2 C          59.7309   87.1144    9.0644 C.ar    1  UNL1       -0.0018
      3 C          58.8996   86.8237    7.8500 C.ar    1  UNL1       -0.0001
      4 C          58.6862   87.8882    6.8150 C.ar    1  UNL1        0.0045
      5 C          59.3039   89.2433    6.9943 C.ar    1  UNL1        0.0531
      6 C          60.1351   89.5339    8.2086 C.ar    1  UNL1        0.0027
      7 N          62.2093   87.8503   11.0602 N.am    1  UNL1       -0.2435
      8 C          62.7932   88.5394   12.2578 C.2     1  UNL1        0.2413
      9 O          63.8586   87.9895   13.1591 O.2     1  UNL1       -0.2736
     10 C          62.1246   89.8751   12.3958 C.3     1  UNL1        0.1448
     11 S          61.1274   90.0114   11.2835 S.3     1  UNL1       -0.1066
     12 C          61.1798   88.7601   10.4581 C.3     1  UNL1        0.1510
     13 C          62.6277   85.3233   11.4954 C.ar    1  UNL1        0.1523
     14 C          63.0067   83.9633   10.9889 C.ar    1  UNL1        0.0382
     15 C          63.3463   83.7701    9.5407 C.ar    1  UNL1        0.0032
     16 C          63.3068   84.9370    8.5990 C.ar    1  UNL1        0.0015
     17 C          62.9278   86.2970    9.1054 C.ar    1  UNL1        0.0180
     18 C          62.5883   86.4902   10.5536 C.ar    1  UNL1        0.0889
     19 C          62.6689   84.4707   13.9493 C.3     1  UNL1        0.2525
     20 O          62.2881   85.5166   12.9437 O.3     1  UNL1       -0.4702
     21 C          59.0905   90.3078    5.9593 C.2     1  UNL1        0.2458
     22 O          57.6979   90.7128    5.5760 O.2     1  UNL1       -0.2701
     23 N          60.2695   90.9673    5.3075 N.am    1  UNL1       -0.3005
     24 H          61.1835   90.7015    5.5591 H       1  UNL1        0.1497
     25 C          60.0562   92.0318    4.2725 C.3     1  UNL1        0.0944
     26 C          61.1636   92.3911    3.3267 C.3     1  UNL1        0.0476
     27 C          60.8521   92.7157    1.8957 C.ar    1  UNL1       -0.0204
     28 C          59.4594   93.1097    1.5022 C.ar    1  UNL1       -0.0037
     29 C          59.1478   93.4343    0.0712 C.ar    1  UNL1        0.0064
     30 C          60.2291   93.3650   -0.9661 C.ar    1  UNL1        0.0345
     31 BR         59.9176   93.6897   -2.3970 Br      1  UNL1       -0.0490
     32 C          61.6218   92.9711   -0.5725 C.ar    1  UNL1        0.0064
     33 C          61.9334   92.6465    0.8584 C.ar    1  UNL1       -0.0037
@<TRIPOS>BOND
     1    19    20    1
     2    20    13    1
     3    13    14   ar
     4    14    15   ar
     5    15    16   ar
     6    16    17   ar
     7    17    18   ar
     8    18     7    1
     9     7     8   am
    10     8     9    2
    11     8    10    1
    12    10    11    1
    13    11    12    1
    14    12     1    1
    15     1     2   ar
    16     2     3   ar
    17     3     4   ar
    18     4     5   ar
    19     5    21    1
    20    21    22    2
    21    21    23   am
    22    23    25    1
    23    25    26    1
    24    26    27    1
    25    27    28   ar
    26    28    29   ar
    27    29    30   ar
    28    30    31    1
    29    30    32   ar
    30    32    33   ar
    31     5     6   ar
    32    18    13   ar
    33    12     7    1
    34     6     1   ar
    35    33    27   ar
    36    23    24    1
