@<TRIPOS>MOLECULE
*****
 27 29 0 0 0
SMALL
GASTEIGER

@<TRIPOS>ATOM
      1 C          63.8558   87.3388   15.0974 C.ar    1  UNL1        0.0238
      2 C          63.2944   87.7720   16.4192 C.ar    1  UNL1        0.0020
      3 C          63.2039   89.2314   16.7536 C.ar    1  UNL1        0.0001
      4 C          63.6748   90.2577   15.7661 C.ar    1  UNL1        0.0001
      5 C          64.2362   89.8245   14.4443 C.ar    1  UNL1        0.0030
      6 C          64.3267   88.3651   14.1100 C.ar    1  UNL1        0.0021
      7 C          64.7070   90.8508   13.4569 C.ar    1  UNL1        0.0343
      8 C          63.9248   91.0975   12.2010 C.ar    1  UNL1        0.0030
      9 C          64.3957   92.1237   11.2135 C.ar    1  UNL1        0.0002
     10 C          65.6488   92.9033   11.4820 C.ar    1  UNL1        0.0031
     11 C          66.4309   92.6566   12.7379 C.ar    1  UNL1        0.0372
     12 C          65.9601   91.6303   13.7253 C.ar    1  UNL1        0.1467
     13 O          66.7423   91.3837   14.9812 O.3     1  UNL1       -0.4045
     14 C          67.3798   92.5321   15.7055 C.3     1  UNL1        0.5753
     15 F          68.0175   93.6806   16.4298 F       1  UNL1       -0.1328
     16 F          68.6902   92.2212   15.0451 F       1  UNL1       -0.1328
     17 F          66.0695   92.8431   16.3659 F       1  UNL1       -0.1328
     18 C          63.3462   83.6158   14.1251 C.ar    1  UNL1        0.1412
     19 C          64.8254   83.6511   14.3719 C.ar    1  UNL1        0.0606
     20 S          65.1963   85.0500   14.7662 S.2     1  UNL1       -0.0658
     21 C          63.9464   85.8793   14.7630 C.ar    1  UNL1        0.1109
     22 N          62.8030   84.9930   14.3668 N.ar    1  UNL1       -0.2337
     23 N          62.0346   81.4609   14.7464 N.am    1  UNL1       -0.3241
     24 C          62.5500   82.4144   13.7095 C.2     1  UNL1        0.2610
     25 O          62.2693   82.1664   12.2570 O.2     1  UNL1       -0.2687
     26 H          61.5121   80.6723   14.4736 H       1  UNL1        0.1453
     27 H          62.2189   81.6236   15.6997 H       1  UNL1        0.1453
@<TRIPOS>BOND
     1    23    24   am
     2    24    25    2
     3    24    18    1
     4    18    19   ar
     5    19    20   ar
     6    20    21   ar
     7    21     1    1
     8     1     2   ar
     9     2     3   ar
    10     3     4   ar
    11     4     5   ar
    12     5     7    1
    13     7     8   ar
    14     8     9   ar
    15     9    10   ar
    16    10    11   ar
    17    11    12   ar
    18    12    13    1
    19    13    14    1
    20    14    15    1
    21    14    16    1
    22    14    17    1
    23     5     6   ar
    24    21    22   ar
    25    22    18   ar
    26     6     1   ar
    27    12     7   ar
    28    23    26    1
    29    23    27    1
@<TRIPOS>MOLECULE
*****
 27 29 0 0 0
SMALL
GASTEIGER

@<TRIPOS>ATOM
      1 C          63.6136   86.2673   15.4154 C.ar    1  UNL1        0.0238
      2 C          63.0475   86.4946   16.7857 C.ar    1  UNL1        0.0020
      3 C          62.9526   87.8865   17.3366 C.ar    1  UNL1        0.0001
      4 C          63.4239   89.0511   16.5172 C.ar    1  UNL1        0.0001
      5 C          63.9901   88.8239   15.1469 C.ar    1  UNL1        0.0030
      6 C          64.0849   87.4320   14.5960 C.ar    1  UNL1        0.0021
      7 C          64.4614   89.9886   14.3274 C.ar    1  UNL1        0.0343
      8 C          65.7186   90.7130   14.7073 C.ar    1  UNL1        0.0030
      9 C          66.1899   91.8777   13.8879 C.ar    1  UNL1        0.0002
     10 C          65.4040   92.3179   12.6886 C.ar    1  UNL1        0.0031
     11 C          64.1467   91.5934   12.3087 C.ar    1  UNL1        0.0372
     12 C          63.6754   90.4288   13.1281 C.ar    1  UNL1        0.1467
     13 O          62.4180   89.7043   12.7482 O.3     1  UNL1       -0.4045
     14 C          62.2339   89.2068   11.3452 C.3     1  UNL1        0.5753
     15 F          62.0498   88.7092    9.9421 F       1  UNL1       -0.1328
     16 F          63.1352   88.0444   11.6391 F       1  UNL1       -0.1328
     17 F          61.3325   90.3691   11.0513 F       1  UNL1       -0.1328
     18 C          63.2007   82.5605   14.3409 C.ar    1  UNL1        0.1412
     19 C          64.5083   82.9063   13.6922 C.ar    1  UNL1        0.0606
     20 S          64.8221   84.3370   14.0158 S.2     1  UNL1       -0.0658
     21 C          63.7085   84.8753   14.8644 C.ar    1  UNL1        0.1109
     22 N          62.7064   83.7774   15.0653 N.ar    1  UNL1       -0.2337
     23 N          61.0193   81.1680   14.1113 N.am    1  UNL1       -0.3241
     24 C          62.5089   81.2311   14.2764 C.2     1  UNL1        0.2610
     25 O          63.3066   79.9648   14.3770 O.2     1  UNL1       -0.2687
     26 H          60.5653   80.2955   14.0690 H       1  UNL1        0.1453
     27 H          60.4957   81.9991   14.0453 H       1  UNL1        0.1453
@<TRIPOS>BOND
     1    23    24   am
     2    24    25    2
     3    24    18    1
     4    18    19   ar
     5    19    20   ar
     6    20    21   ar
     7    21     1    1
     8     1     2   ar
     9     2     3   ar
    10     3     4   ar
    11     4     5   ar
    12     5     7    1
    13     7     8   ar
    14     8     9   ar
    15     9    10   ar
    16    10    11   ar
    17    11    12   ar
    18    12    13    1
    19    13    14    1
    20    14    15    1
    21    14    16    1
    22    14    17    1
    23     5     6   ar
    24    21    22   ar
    25    22    18   ar
    26     6     1   ar
    27    12     7   ar
    28    23    26    1
    29    23    27    1
@<TRIPOS>MOLECULE
*****
 27 29 0 0 0
SMALL
GASTEIGER

@<TRIPOS>ATOM
      1 C          62.5960   89.8101   11.4079 C.ar    1  UNL1        0.0238
      2 C          61.1749   90.1718   11.0922 C.ar    1  UNL1        0.0020
      3 C          60.1684   89.0926   10.8234 C.ar    1  UNL1        0.0001
      4 C          60.5829   87.6518   10.8704 C.ar    1  UNL1        0.0001
      5 C          62.0040   87.2901   11.1862 C.ar    1  UNL1        0.0030
      6 C          63.0105   88.3693   11.4549 C.ar    1  UNL1        0.0021
      7 C          62.4185   85.8493   11.2332 C.ar    1  UNL1        0.0343
      8 C          62.4987   85.1345   12.5494 C.ar    1  UNL1        0.0030
      9 C          62.9132   83.6937   12.5965 C.ar    1  UNL1        0.0002
     10 C          63.2475   82.9676   11.3272 C.ar    1  UNL1        0.0031
     11 C          63.1673   83.6824   10.0109 C.ar    1  UNL1        0.0372
     12 C          62.7528   85.1233    9.9639 C.ar    1  UNL1        0.1467
     13 O          62.6726   85.8380    8.6476 O.3     1  UNL1       -0.4045
     14 C          61.8499   85.2650    7.5319 C.3     1  UNL1        0.5753
     15 F          61.0271   84.6920    6.4162 F       1  UNL1       -0.1328
     16 F          60.6041   85.7931    8.1793 F       1  UNL1       -0.1328
     17 F          63.0956   84.7370    6.8845 F       1  UNL1       -0.1328
     18 C          65.1218   92.7570   11.3700 C.ar    1  UNL1        0.1412
     19 C          65.1814   92.3427   12.8105 C.ar    1  UNL1        0.0606
     20 S          64.2425   91.1884   13.0000 S.2     1  UNL1       -0.0658
     21 C          63.6026   90.8893   11.6766 C.ar    1  UNL1        0.1109
     22 N          64.1461   91.8587   10.6693 N.ar    1  UNL1       -0.2337
     23 N          65.2037   95.1363   10.3296 N.am    1  UNL1       -0.3241
     24 C          65.9012   93.8736   10.7408 C.2     1  UNL1        0.2610
     25 O          67.3781   93.7274   10.5227 O.2     1  UNL1       -0.2687
     26 H          65.7153   95.8691    9.9166 H       1  UNL1        0.1453
     27 H          64.2344   95.2322   10.4727 H       1  UNL1        0.1453
@<TRIPOS>BOND
     1    23    24   am
     2    24    25    2
     3    24    18    1
     4    18    19   ar
     5    19    20   ar
     6    20    21   ar
     7    21     1    1
     8     1     2   ar
     9     2     3   ar
    10     3     4   ar
    11     4     5   ar
    12     5     7    1
    13     7     8   ar
    14     8     9   ar
    15     9    10   ar
    16    10    11   ar
    17    11    12   ar
    18    12    13    1
    19    13    14    1
    20    14    15    1
    21    14    16    1
    22    14    17    1
    23     5     6   ar
    24    21    22   ar
    25    22    18   ar
    26     6     1   ar
    27    12     7   ar
    28    23    26    1
    29    23    27    1
@<TRIPOS>MOLECULE
*****
 27 29 0 0 0
SMALL
GASTEIGER

@<TRIPOS>ATOM
      1 C          62.6768   88.0041   11.6331 C.ar    1  UNL1        0.0238
      2 C          61.9376   88.1649   10.3379 C.ar    1  UNL1        0.0020
      3 C          61.4583   86.9546    9.5927 C.ar    1  UNL1        0.0001
      4 C          61.7183   85.5835   10.1427 C.ar    1  UNL1        0.0001
      5 C          62.4575   85.4227   11.4379 C.ar    1  UNL1        0.0030
      6 C          62.9368   86.6330   12.1831 C.ar    1  UNL1        0.0021
      7 C          62.7175   84.0516   11.9879 C.ar    1  UNL1        0.0343
      8 C          63.0231   82.9157   11.0572 C.ar    1  UNL1        0.0030
      9 C          63.2831   81.5446   11.6072 C.ar    1  UNL1        0.0002
     10 C          63.2374   81.3094   13.0879 C.ar    1  UNL1        0.0031
     11 C          62.9317   82.4453   14.0186 C.ar    1  UNL1        0.0372
     12 C          62.6718   83.8164   13.4686 C.ar    1  UNL1        0.1467
     13 O          62.3661   84.9523   14.3994 O.3     1  UNL1       -0.4045
     14 C          63.2571   85.2180   15.5765 C.3     1  UNL1        0.5753
     15 F          64.1480   85.4836   16.7537 F       1  UNL1       -0.1328
     16 F          62.0702   85.1467   16.4909 F       1  UNL1       -0.1328
     17 F          64.4439   85.2892   14.6621 F       1  UNL1       -0.1328
     18 C          63.8834   90.6867   14.1656 C.ar    1  UNL1        0.1412
     19 C          63.9039   91.4673   12.8848 C.ar    1  UNL1        0.0606
     20 S          63.4544   90.5573   11.7803 S.2     1  UNL1       -0.0658
     21 C          63.1561   89.2145   12.3784 C.ar    1  UNL1        0.1109
     22 N          63.4213   89.2944   13.8526 N.ar    1  UNL1       -0.2337
     23 N          65.4996   92.0333   15.6902 N.am    1  UNL1       -0.3241
     24 C          64.2592   91.2071   15.5213 C.2     1  UNL1        0.2610
     25 O          63.3945   90.9012   16.7082 O.2     1  UNL1       -0.2687
     26 H          65.7462   92.3749   16.5800 H       1  UNL1        0.1453
     27 H          66.0672   92.2341   14.9112 H       1  UNL1        0.1453
@<TRIPOS>BOND
     1    23    24   am
     2    24    25    2
     3    24    18    1
     4    18    19   ar
     5    19    20   ar
     6    20    21   ar
     7    21     1    1
     8     1     2   ar
     9     2     3   ar
    10     3     4   ar
    11     4     5   ar
    12     5     7    1
    13     7     8   ar
    14     8     9   ar
    15     9    10   ar
    16    10    11   ar
    17    11    12   ar
    18    12    13    1
    19    13    14    1
    20    14    15    1
    21    14    16    1
    22    14    17    1
    23     5     6   ar
    24    21    22   ar
    25    22    18   ar
    26     6     1   ar
    27    12     7   ar
    28    23    26    1
    29    23    27    1
@<TRIPOS>MOLECULE
*****
 27 29 0 0 0
SMALL
GASTEIGER

@<TRIPOS>ATOM
      1 C          62.5979   88.9930   11.7675 C.ar    1  UNL1        0.0238
      2 C          61.2027   89.2612   11.2864 C.ar    1  UNL1        0.0020
      3 C          60.3295   88.1238   10.8463 C.ar    1  UNL1        0.0001
      4 C          60.8515   86.7181   10.8873 C.ar    1  UNL1        0.0001
      5 C          62.2467   86.4500   11.3684 C.ar    1  UNL1        0.0030
      6 C          63.1199   87.5874   11.8084 C.ar    1  UNL1        0.0021
      7 C          62.7687   85.0443   11.4094 C.ar    1  UNL1        0.0343
      8 C          63.2424   84.3831   10.1490 C.ar    1  UNL1        0.0030
      9 C          63.7644   82.9775   10.1900 C.ar    1  UNL1        0.0002
     10 C          63.8128   82.2330   11.4913 C.ar    1  UNL1        0.0031
     11 C          63.3391   82.8942   12.7516 C.ar    1  UNL1        0.0372
     12 C          62.8171   84.2999   12.7107 C.ar    1  UNL1        0.1467
     13 O          62.3435   84.9611   13.9711 O.3     1  UNL1       -0.4045
     14 C          63.2755   85.1073   15.1372 C.3     1  UNL1        0.5753
     15 F          64.2076   85.2536   16.3034 F       1  UNL1       -0.1328
     16 F          62.2703   84.4353   16.0248 F       1  UNL1       -0.1328
     17 F          64.2807   85.7793   14.2495 F       1  UNL1       -0.1328
     18 C          64.8552   92.1240   12.1765 C.ar    1  UNL1        0.1412
     19 C          64.7746   91.6377   13.5932 C.ar    1  UNL1        0.0606
     20 S          63.9192   90.4057   13.6124 S.2     1  UNL1       -0.0658
     21 C          63.4712   90.1305   12.2076 C.ar    1  UNL1        0.1109
     22 N          64.0496   91.1925   11.3201 N.ar    1  UNL1       -0.2337
     23 N          65.3675   93.8689   10.3210 N.am    1  UNL1       -0.3241
     24 C          65.6090   93.3301   11.6998 C.2     1  UNL1        0.2610
     25 O          66.6044   93.9973   12.6021 O.2     1  UNL1       -0.2687
     26 H          65.8623   94.6604   10.0081 H       1  UNL1        0.1453
     27 H          64.7142   93.4310    9.7288 H       1  UNL1        0.1453
@<TRIPOS>BOND
     1    23    24   am
     2    24    25    2
     3    24    18    1
     4    18    19   ar
     5    19    20   ar
     6    20    21   ar
     7    21     1    1
     8     1     2   ar
     9     2     3   ar
    10     3     4   ar
    11     4     5   ar
    12     5     7    1
    13     7     8   ar
    14     8     9   ar
    15     9    10   ar
    16    10    11   ar
    17    11    12   ar
    18    12    13    1
    19    13    14    1
    20    14    15    1
    21    14    16    1
    22    14    17    1
    23     5     6   ar
    24    21    22   ar
    25    22    18   ar
    26     6     1   ar
    27    12     7   ar
    28    23    26    1
    29    23    27    1
@<TRIPOS>MOLECULE
*****
 27 29 0 0 0
SMALL
GASTEIGER

@<TRIPOS>ATOM
      1 C          63.8315   87.7338   15.2781 C.ar    1  UNL1        0.0238
      2 C          63.1958   88.2495   16.5350 C.ar    1  UNL1        0.0020
      3 C          63.1899   89.7216   16.8230 C.ar    1  UNL1        0.0001
      4 C          63.8196   90.6779   15.8541 C.ar    1  UNL1        0.0001
      5 C          64.4553   90.1622   14.5972 C.ar    1  UNL1        0.0030
      6 C          64.4613   88.6902   14.3092 C.ar    1  UNL1        0.0021
      7 C          65.0850   91.1186   13.6282 C.ar    1  UNL1        0.0343
      8 C          66.4338   91.7050   13.9226 C.ar    1  UNL1        0.0030
      9 C          67.0636   92.6614   12.9537 C.ar    1  UNL1        0.0002
     10 C          66.3445   93.0313   11.6904 C.ar    1  UNL1        0.0031
     11 C          64.9957   92.4448   11.3960 C.ar    1  UNL1        0.0372
     12 C          64.3660   91.4884   12.3649 C.ar    1  UNL1        0.1467
     13 O          63.0171   90.9019   12.0704 O.3     1  UNL1       -0.4045
     14 C          62.8342   89.9984   10.8872 C.3     1  UNL1        0.5753
     15 F          62.6513   89.0948    9.7039 F       1  UNL1       -0.1328
     16 F          62.7411   91.1951    9.9877 F       1  UNL1       -0.1328
     17 F          62.9274   88.8016   11.7867 F       1  UNL1       -0.1328
     18 C          63.7987   84.1399   13.8124 C.ar    1  UNL1        0.1412
     19 C          63.8949   83.8529   15.2815 C.ar    1  UNL1        0.0606
     20 S          63.9189   85.1642   16.0094 S.2     1  UNL1       -0.0658
     21 C          63.8375   86.2617   14.9901 C.ar    1  UNL1        0.1109
     22 N          63.7632   85.6286   13.6323 N.ar    1  UNL1       -0.2337
     23 N          64.8535   83.0446   11.7058 N.am    1  UNL1       -0.3241
     24 C          63.7469   83.1177   12.7158 C.2     1  UNL1        0.2610
     25 O          62.5887   82.1685   12.6293 O.2     1  UNL1       -0.2687
     26 H          64.8196   82.3737   10.9861 H       1  UNL1        0.1453
     27 H          65.6137   83.6676   11.7625 H       1  UNL1        0.1453
@<TRIPOS>BOND
     1    23    24   am
     2    24    25    2
     3    24    18    1
     4    18    19   ar
     5    19    20   ar
     6    20    21   ar
     7    21     1    1
     8     1     2   ar
     9     2     3   ar
    10     3     4   ar
    11     4     5   ar
    12     5     7    1
    13     7     8   ar
    14     8     9   ar
    15     9    10   ar
    16    10    11   ar
    17    11    12   ar
    18    12    13    1
    19    13    14    1
    20    14    15    1
    21    14    16    1
    22    14    17    1
    23     5     6   ar
    24    21    22   ar
    25    22    18   ar
    26     6     1   ar
    27    12     7   ar
    28    23    26    1
    29    23    27    1
@<TRIPOS>MOLECULE
*****
 27 29 0 0 0
SMALL
GASTEIGER

@<TRIPOS>ATOM
      1 C          62.7932   87.6707   11.9120 C.ar    1  UNL1        0.0238
      2 C          61.9852   88.2124   10.7703 C.ar    1  UNL1        0.0020
      3 C          62.0028   89.6819   10.4699 C.ar    1  UNL1        0.0001
      4 C          62.8283   90.6096   11.3112 C.ar    1  UNL1        0.0001
      5 C          63.6363   90.0678   12.4529 C.ar    1  UNL1        0.0030
      6 C          63.6187   88.5984   12.7533 C.ar    1  UNL1        0.0021
      7 C          64.4619   90.9955   13.2942 C.ar    1  UNL1        0.0343
      8 C          64.4277   90.8826   14.7895 C.ar    1  UNL1        0.0030
      9 C          65.2533   91.8103   15.6309 C.ar    1  UNL1        0.0002
     10 C          66.1130   92.8510   14.9769 C.ar    1  UNL1        0.0031
     11 C          66.1471   92.9640   13.4815 C.ar    1  UNL1        0.0372
     12 C          65.3216   92.0362   12.6402 C.ar    1  UNL1        0.1467
     13 O          65.3558   92.1493   11.1448 O.3     1  UNL1       -0.4045
     14 C          66.2874   93.1239   10.4875 C.3     1  UNL1        0.5753
     15 F          67.2190   94.0986    9.8301 F       1  UNL1       -0.1328
     16 F          65.2207   94.1772   10.5374 F       1  UNL1       -0.1328
     17 F          67.3541   92.0706   10.4376 F       1  UNL1       -0.1328
     18 C          62.9200   84.0841   13.3906 C.ar    1  UNL1        0.1412
     19 C          62.5772   83.7955   11.9590 C.ar    1  UNL1        0.0606
     20 S          62.4880   85.1039   11.2310 S.2     1  UNL1       -0.0658
     21 C          62.7756   86.2011   12.2125 C.ar    1  UNL1        0.1109
     22 N          63.0426   85.5708   13.5472 N.ar    1  UNL1       -0.2337
     23 N          62.1106   81.9565   14.6428 N.am    1  UNL1       -0.3241
     24 C          63.1072   83.0649   14.4751 C.2     1  UNL1        0.2610
     25 O          64.2911   83.1540   15.3919 O.2     1  UNL1       -0.2687
     26 H          62.2335   81.2875   15.3546 H       1  UNL1        0.1453
     27 H          61.3336   81.8979   14.0411 H       1  UNL1        0.1453
@<TRIPOS>BOND
     1    23    24   am
     2    24    25    2
     3    24    18    1
     4    18    19   ar
     5    19    20   ar
     6    20    21   ar
     7    21     1    1
     8     1     2   ar
     9     2     3   ar
    10     3     4   ar
    11     4     5   ar
    12     5     7    1
    13     7     8   ar
    14     8     9   ar
    15     9    10   ar
    16    10    11   ar
    17    11    12   ar
    18    12    13    1
    19    13    14    1
    20    14    15    1
    21    14    16    1
    22    14    17    1
    23     5     6   ar
    24    21    22   ar
    25    22    18   ar
    26     6     1   ar
    27    12     7   ar
    28    23    26    1
    29    23    27    1
@<TRIPOS>MOLECULE
*****
 27 29 0 0 0
SMALL
GASTEIGER

@<TRIPOS>ATOM
      1 C          62.6337   87.2927   11.6000 C.ar    1  UNL1        0.0238
      2 C          61.8678   87.8472   10.4355 C.ar    1  UNL1        0.0020
      3 C          61.8691   89.3238   10.1717 C.ar    1  UNL1        0.0001
      4 C          62.6362   90.2459   11.0724 C.ar    1  UNL1        0.0001
      5 C          63.4021   89.6915   12.2368 C.ar    1  UNL1        0.0030
      6 C          63.4008   88.2149   12.5006 C.ar    1  UNL1        0.0021
      7 C          64.1692   90.6136   13.1374 C.ar    1  UNL1        0.0343
      8 C          65.1938   91.5448   12.5604 C.ar    1  UNL1        0.0030
      9 C          65.9610   92.4669   13.4611 C.ar    1  UNL1        0.0002
     10 C          65.7035   92.4578   14.9387 C.ar    1  UNL1        0.0031
     11 C          64.6789   91.5266   15.5158 C.ar    1  UNL1        0.0372
     12 C          63.9118   90.6045   14.6151 C.ar    1  UNL1        0.1467
     13 O          62.8871   89.6733   15.1922 O.3     1  UNL1       -0.4045
     14 C          63.1392   89.0054   16.5115 C.3     1  UNL1        0.5753
     15 F          63.3912   88.3376   17.8308 F       1  UNL1       -0.1328
     16 F          62.5757   90.1993   17.2235 F       1  UNL1       -0.1328
     17 F          63.7027   87.8115   15.7994 F       1  UNL1       -0.1328
     18 C          62.5822   83.6755   13.0065 C.ar    1  UNL1        0.1412
     19 C          62.6788   83.4121   11.5330 C.ar    1  UNL1        0.0606
     20 S          62.7098   84.7351   10.8267 S.2     1  UNL1       -0.0658
     21 C          62.6324   85.8161   11.8638 C.ar    1  UNL1        0.1109
     22 N          62.5535   85.1612   13.2110 N.ar    1  UNL1       -0.2337
     23 N          62.6869   83.0360   15.5225 N.am    1  UNL1       -0.3241
     24 C          62.5244   82.6357   14.0861 C.2     1  UNL1        0.2610
     25 O          62.3040   81.1955   13.7293 O.2     1  UNL1       -0.2687
     26 H          62.6490   82.3535   16.2311 H       1  UNL1        0.1453
     27 H          62.8315   83.9812   15.7567 H       1  UNL1        0.1453
@<TRIPOS>BOND
     1    23    24   am
     2    24    25    2
     3    24    18    1
     4    18    19   ar
     5    19    20   ar
     6    20    21   ar
     7    21     1    1
     8     1     2   ar
     9     2     3   ar
    10     3     4   ar
    11     4     5   ar
    12     5     7    1
    13     7     8   ar
    14     8     9   ar
    15     9    10   ar
    16    10    11   ar
    17    11    12   ar
    18    12    13    1
    19    13    14    1
    20    14    15    1
    21    14    16    1
    22    14    17    1
    23     5     6   ar
    24    21    22   ar
    25    22    18   ar
    26     6     1   ar
    27    12     7   ar
    28    23    26    1
    29    23    27    1
@<TRIPOS>MOLECULE
*****
 27 29 0 0 0
SMALL
GASTEIGER

@<TRIPOS>ATOM
      1 C          65.0854   91.8280   12.9045 C.ar    1  UNL1        0.0238
      2 C          65.7453   92.1767   14.2056 C.ar    1  UNL1        0.0020
      3 C          66.5457   93.4395   14.3259 C.ar    1  UNL1        0.0001
      4 C          66.6862   94.3537   13.1450 C.ar    1  UNL1        0.0001
      5 C          66.0263   94.0051   11.8439 C.ar    1  UNL1        0.0030
      6 C          65.2259   92.7422   11.7236 C.ar    1  UNL1        0.0021
      7 C          66.1668   94.9193   10.6630 C.ar    1  UNL1        0.0343
      8 C          65.1069   95.9409   10.3751 C.ar    1  UNL1        0.0030
      9 C          65.2474   96.8551    9.1942 C.ar    1  UNL1        0.0002
     10 C          66.4478   96.7477    8.3012 C.ar    1  UNL1        0.0031
     11 C          67.5077   95.7261    8.5891 C.ar    1  UNL1        0.0372
     12 C          67.3672   94.8119    9.7700 C.ar    1  UNL1        0.1467
     13 O          68.4272   93.7903   10.0579 O.3     1  UNL1       -0.4045
     14 C          68.2946   92.3984    9.5147 C.3     1  UNL1        0.5753
     15 F          68.1620   91.0065    8.9716 F       1  UNL1       -0.1328
     16 F          68.1770   91.8646   10.9115 F       1  UNL1       -0.1328
     17 F          68.4123   92.9323    8.1179 F       1  UNL1       -0.1328
     18 C          62.7954   88.8486   11.9325 C.ar    1  UNL1        0.1412
     19 C          63.3113   88.3947   13.2659 C.ar    1  UNL1        0.0606
     20 S          64.2319   89.4555   13.7922 S.2     1  UNL1       -0.0658
     21 C          64.2850   90.5651   12.7842 C.ar    1  UNL1        0.1109
     22 N          63.3972   90.1900   11.6348 N.ar    1  UNL1       -0.2337
     23 N          62.0945   88.0123    9.5747 N.am    1  UNL1       -0.3241
     24 C          61.8446   88.0937   11.0514 C.2     1  UNL1        0.2610
     25 O          60.6440   87.4203   11.6472 O.2     1  UNL1       -0.2687
     26 H          61.4705   87.5168    8.9964 H       1  UNL1        0.1453
     27 H          62.8825   88.4543    9.1836 H       1  UNL1        0.1453
@<TRIPOS>BOND
     1    23    24   am
     2    24    25    2
     3    24    18    1
     4    18    19   ar
     5    19    20   ar
     6    20    21   ar
     7    21     1    1
     8     1     2   ar
     9     2     3   ar
    10     3     4   ar
    11     4     5   ar
    12     5     7    1
    13     7     8   ar
    14     8     9   ar
    15     9    10   ar
    16    10    11   ar
    17    11    12   ar
    18    12    13    1
    19    13    14    1
    20    14    15    1
    21    14    16    1
    22    14    17    1
    23     5     6   ar
    24    21    22   ar
    25    22    18   ar
    26     6     1   ar
    27    12     7   ar
    28    23    26    1
    29    23    27    1
