@<TRIPOS>MOLECULE
*****
 34 38 0 0 0
SMALL
GASTEIGER

@<TRIPOS>ATOM
      1 C          63.9348   89.1529   15.3703 C.ar    1  UNL1        0.2037
      2 N          63.1894   90.1528   16.2038 N.ar    1  UNL1       -0.0555
      3 O          63.6451   91.5239   15.8007 O.2     1  UNL1       -0.3291
      4 C          64.6722   91.3713   14.7180 C.ar    1  UNL1        0.2973
      5 N          64.8512   89.9059   14.4521 N.ar    1  UNL1       -0.1843
      6 C          63.4982   84.6794   15.5867 C.ar    1  UNL1       -0.0061
      7 C          64.1146   85.3150   14.3760 C.ar    1  UNL1       -0.0028
      8 C          64.2601   86.8062   14.3039 C.ar    1  UNL1        0.0029
      9 C          63.7892   87.6617   15.4425 C.ar    1  UNL1        0.0391
     10 C          63.1728   87.0260   16.6532 C.ar    1  UNL1        0.0029
     11 C          63.0273   85.5348   16.7253 C.ar    1  UNL1       -0.0028
     12 C          63.3527   83.1881   15.6589 C.3     1  UNL1        0.0992
     13 C          63.0686   81.2472   12.6149 C.3     1  UNL1        0.0684
     14 C          64.1840   81.9661   13.3142 C.3     1  UNL1        0.0793
     15 N          63.2350   82.3842   14.3980 N.3     1  UNL1       -0.2682
     16 C          62.1196   81.6653   13.6987 C.3     1  UNL1        0.0793
     17 O          63.1717   81.0988   10.0231 O.co2   1  UNL1       -0.5491
     18 C          62.9508   80.4432   11.3540 C.2     1  UNL1        0.0527
     19 O          62.6122   78.9836   11.4241 O.co2   1  UNL1       -0.5491
     20 C          65.3936   92.4880   14.0234 C.ar    1  UNL1        0.2364
     21 O          66.2366   93.5384   14.6836 O.2     1  UNL1       -0.3485
     22 N          66.7626   94.4500   13.6148 N.ar    1  UNL1       -0.0753
     23 C          66.2448   93.9628   12.2939 C.ar    1  UNL1        0.1445
     24 C          65.3987   92.7503   12.5465 C.ar    1  UNL1        0.1355
     25 C          66.5240   94.5800   10.9557 C.ar    1  UNL1        0.1021
     26 C          65.6490   95.6849   10.4421 C.ar    1  UNL1        0.0208
     27 C          65.9283   96.3021    9.1037 C.ar    1  UNL1        0.0032
     28 C          67.0824   95.8144    8.2791 C.ar    1  UNL1        0.0207
     29 C          67.9573   94.7095    8.7926 C.ar    1  UNL1        0.0989
     30 N          67.6781   94.0923   10.1310 N.ar    1  UNL1       -0.2422
     31 C          64.6832   91.9420   11.5050 C.3     1  UNL1        0.4232
     32 F          63.9678   91.1336   10.4635 F       1  UNL1       -0.1657
     33 F          63.4332   91.9811   12.3333 F       1  UNL1       -0.1657
     34 F          65.9332   91.9028   10.6768 F       1  UNL1       -0.1657
@<TRIPOS>UNITY_ATOM_ATTR
17 1
charge -1
@<TRIPOS>BOND
     1    17    18   ar
     2    18    19   ar
     3    18    13    1
     4    13    14    1
     5    14    15    1
     6    15    12    1
     7    12     6    1
     8     6     7   ar
     9     7     8   ar
    10     8     9   ar
    11     9     1    1
    12     1     2   ar
    13     2     3   ar
    14     3     4   ar
    15     4    20    1
    16    20    21   ar
    17    21    22   ar
    18    22    23   ar
    19    23    25    1
    20    25    26   ar
    21    26    27   ar
    22    27    28   ar
    23    28    29   ar
    24    29    30   ar
    25    23    24   ar
    26    24    31    1
    27    31    32    1
    28    31    33    1
    29    31    34    1
    30     4     5   ar
    31     9    10   ar
    32    10    11   ar
    33    15    16    1
    34    16    13    1
    35    11     6   ar
    36     5     1   ar
    37    24    20   ar
    38    30    25   ar
@<TRIPOS>MOLECULE
*****
 34 38 0 0 0
SMALL
GASTEIGER

@<TRIPOS>ATOM
      1 C          64.1312   88.4475   14.9356 C.ar    1  UNL1        0.2037
      2 N          63.2807   88.1890   16.1439 N.ar    1  UNL1       -0.0555
      3 O          62.9878   86.7189   16.1988 O.2     1  UNL1       -0.3291
      4 C          63.6573   86.0688   15.0243 C.ar    1  UNL1        0.2973
      5 N          64.3639   87.1371   14.2437 N.ar    1  UNL1       -0.1843
      6 C          65.7075   92.4511   13.6179 C.ar    1  UNL1       -0.0061
      7 C          64.6416   91.7641   12.8168 C.ar    1  UNL1       -0.0028
      8 C          64.1162   90.4296   13.2560 C.ar    1  UNL1        0.0029
      9 C          64.6566   89.7821   14.4964 C.ar    1  UNL1        0.0391
     10 C          65.7225   90.4690   15.2976 C.ar    1  UNL1        0.0029
     11 C          66.2479   91.8036   14.8583 C.ar    1  UNL1       -0.0028
     12 C          66.2329   93.7857   13.1787 C.3     1  UNL1        0.0992
     13 C          66.9425   94.3897    9.6793 C.3     1  UNL1        0.0684
     14 C          66.8796   93.1729   10.5541 C.3     1  UNL1        0.0793
     15 N          66.5268   94.0359   11.7292 N.3     1  UNL1       -0.2682
     16 C          66.5898   95.2528   10.8544 C.3     1  UNL1        0.0793
     17 O          66.5466   95.7588    7.5070 O.co2   1  UNL1       -0.5491
     18 C          67.2364   94.6400    8.2298 C.2     1  UNL1        0.0527
     19 O          68.2202   93.7715    7.5032 O.co2   1  UNL1       -0.5491
     20 C          63.6256   84.6070   14.6894 C.ar    1  UNL1        0.2364
     21 O          63.8506   83.4773   15.6501 O.2     1  UNL1       -0.3485
     22 N          63.7275   82.1904   14.8894 N.ar    1  UNL1       -0.0753
     23 C          63.4264   82.5248   13.4585 C.ar    1  UNL1        0.1445
     24 C          63.3635   84.0183   13.3349 C.ar    1  UNL1        0.1355
     25 C          63.2239   81.5387   12.3465 C.ar    1  UNL1        0.1021
     26 C          63.5340   81.9296   10.9318 C.ar    1  UNL1        0.0208
     27 C          63.3314   80.9434    9.8197 C.ar    1  UNL1        0.0032
     28 C          62.8190   79.5666   10.1224 C.ar    1  UNL1        0.0207
     29 C          62.5089   79.1758   11.5370 C.ar    1  UNL1        0.0989
     30 N          62.7114   80.1618   12.6490 N.ar    1  UNL1       -0.2422
     31 C          63.0870   84.7881   12.0775 C.3     1  UNL1        0.4232
     32 F          62.8105   85.5578   10.8201 F       1  UNL1       -0.1657
     33 F          64.4664   84.4713   11.5802 F       1  UNL1       -0.1657
     34 F          61.7078   85.1049   12.5748 F       1  UNL1       -0.1657
@<TRIPOS>UNITY_ATOM_ATTR
17 1
charge -1
@<TRIPOS>BOND
     1    17    18   ar
     2    18    19   ar
     3    18    13    1
     4    13    14    1
     5    14    15    1
     6    15    12    1
     7    12     6    1
     8     6     7   ar
     9     7     8   ar
    10     8     9   ar
    11     9     1    1
    12     1     2   ar
    13     2     3   ar
    14     3     4   ar
    15     4    20    1
    16    20    21   ar
    17    21    22   ar
    18    22    23   ar
    19    23    25    1
    20    25    26   ar
    21    26    27   ar
    22    27    28   ar
    23    28    29   ar
    24    29    30   ar
    25    23    24   ar
    26    24    31    1
    27    31    32    1
    28    31    33    1
    29    31    34    1
    30     4     5   ar
    31     9    10   ar
    32    10    11   ar
    33    15    16    1
    34    16    13    1
    35    11     6   ar
    36     5     1   ar
    37    24    20   ar
    38    30    25   ar
@<TRIPOS>MOLECULE
*****
 34 38 0 0 0
SMALL
GASTEIGER

@<TRIPOS>ATOM
      1 C          59.3921   89.4826    6.5926 C.ar    1  UNL1        0.2037
      2 N          58.1708   88.6325    6.7813 N.ar    1  UNL1       -0.0555
      3 O          58.4255   87.7040    7.9315 O.2     1  UNL1       -0.3291
      4 C          59.8043   87.9803    8.4537 C.ar    1  UNL1        0.2973
      5 N          60.4017   89.0796    7.6262 N.ar    1  UNL1       -0.1843
      6 C          59.9324   92.6808    3.4733 C.ar    1  UNL1       -0.0061
      7 C          58.5682   92.3981    4.0291 C.ar    1  UNL1       -0.0028
      8 C          58.3881   91.3321    5.0689 C.ar    1  UNL1        0.0029
      9 C          59.5723   90.5487    5.5528 C.ar    1  UNL1        0.0391
     10 C          60.9365   90.8314    4.9969 C.ar    1  UNL1        0.0029
     11 C          61.1165   91.8974    3.9572 C.ar    1  UNL1       -0.0028
     12 C          60.1125   93.7469    2.4335 C.3     1  UNL1        0.0992
     13 C          63.2500   94.0212    0.6461 C.3     1  UNL1        0.0684
     14 C          62.1320   93.0217    0.6792 C.3     1  UNL1        0.0793
     15 N          61.4121   93.8605    1.6931 N.3     1  UNL1       -0.2682
     16 C          62.5301   94.8600    1.6601 C.3     1  UNL1        0.0793
     17 O          64.6064   94.8680   -1.4016 O.co2   1  UNL1       -0.5491
     18 C          64.5496   94.1348   -0.0943 C.2     1  UNL1        0.0527
     19 O          65.7924   93.5153    0.4727 O.co2   1  UNL1       -0.5491
     20 C          60.4690   87.2803    9.6018 C.ar    1  UNL1        0.2364
     21 O          60.2460   87.5664   11.0572 O.2     1  UNL1       -0.3485
     22 N          61.1125   86.6341   11.8510 N.ar    1  UNL1       -0.0753
     23 C          61.8711   85.7719   10.8860 C.ar    1  UNL1        0.1445
     24 C          61.4734   86.1713    9.4960 C.ar    1  UNL1        0.1355
     25 C          62.8547   84.6988   11.2478 C.ar    1  UNL1        0.1021
     26 C          63.3426   83.7441   10.1986 C.ar    1  UNL1        0.0208
     27 C          64.3263   82.6709   10.5604 C.ar    1  UNL1        0.0032
     28 C          64.8220   82.5525   11.9711 C.ar    1  UNL1        0.0207
     29 C          64.3341   83.5072   13.0202 C.ar    1  UNL1        0.0989
     30 N          63.3505   84.5803   12.6585 N.ar    1  UNL1       -0.2422
     31 C          61.9895   85.5676    8.2236 C.3     1  UNL1        0.4232
     32 F          62.5056   84.9639    6.9510 F       1  UNL1       -0.1657
     33 F          60.6373   84.9756    7.9559 F       1  UNL1       -0.1657
     34 F          63.3415   86.1594    8.4911 F       1  UNL1       -0.1657
@<TRIPOS>UNITY_ATOM_ATTR
17 1
charge -1
@<TRIPOS>BOND
     1    17    18   ar
     2    18    19   ar
     3    18    13    1
     4    13    14    1
     5    14    15    1
     6    15    12    1
     7    12     6    1
     8     6     7   ar
     9     7     8   ar
    10     8     9   ar
    11     9     1    1
    12     1     2   ar
    13     2     3   ar
    14     3     4   ar
    15     4    20    1
    16    20    21   ar
    17    21    22   ar
    18    22    23   ar
    19    23    25    1
    20    25    26   ar
    21    26    27   ar
    22    27    28   ar
    23    28    29   ar
    24    29    30   ar
    25    23    24   ar
    26    24    31    1
    27    31    32    1
    28    31    33    1
    29    31    34    1
    30     4     5   ar
    31     9    10   ar
    32    10    11   ar
    33    15    16    1
    34    16    13    1
    35    11     6   ar
    36     5     1   ar
    37    24    20   ar
    38    30    25   ar
@<TRIPOS>MOLECULE
*****
 34 38 0 0 0
SMALL
GASTEIGER

@<TRIPOS>ATOM
      1 C          59.4293   89.5390    6.5431 C.ar    1  UNL1        0.2037
      2 N          58.1858   88.7259    6.7500 N.ar    1  UNL1       -0.0555
      3 O          58.4255   87.7978    7.9037 O.2     1  UNL1       -0.3291
      4 C          59.8171   88.0373    8.4099 C.ar    1  UNL1        0.2973
      5 N          60.4374   89.1134    7.5690 N.ar    1  UNL1       -0.1843
      6 C          60.0296   92.7002    3.3972 C.ar    1  UNL1       -0.0061
      7 C          61.1888   91.8628    3.8498 C.ar    1  UNL1       -0.0028
      8 C          60.9887   90.8091    4.8984 C.ar    1  UNL1        0.0029
      9 C          59.6293   90.5928    5.4944 C.ar    1  UNL1        0.0391
     10 C          58.4701   91.4302    5.0419 C.ar    1  UNL1        0.0029
     11 C          58.6702   92.4839    3.9932 C.ar    1  UNL1       -0.0028
     12 C          60.2297   93.7539    2.3485 C.3     1  UNL1        0.0992
     13 C          59.0606   93.1892   -1.0321 C.3     1  UNL1        0.0684
     14 C          58.9629   94.3196   -0.0509 C.3     1  UNL1        0.0793
     15 N          59.7454   93.5200    0.9483 N.3     1  UNL1       -0.2682
     16 C          59.8432   92.3896   -0.0329 C.3     1  UNL1        0.0793
     17 O          57.3010   92.2021   -2.6689 O.co2   1  UNL1       -0.5491
     18 C          58.5764   92.9552   -2.4324 C.2     1  UNL1        0.0527
     19 O          59.3677   93.4744   -3.5961 O.co2   1  UNL1       -0.5491
     20 C          60.4732   87.3256    9.5558 C.ar    1  UNL1        0.2364
     21 O          60.2587   87.6143   11.0120 O.2     1  UNL1       -0.3485
     22 N          61.1118   86.6673   11.8028 N.ar    1  UNL1       -0.0753
     23 C          61.8536   85.7934   10.8354 C.ar    1  UNL1        0.1445
     24 C          61.4589   86.2002    9.4466 C.ar    1  UNL1        0.1355
     25 C          62.8203   84.7040   11.1938 C.ar    1  UNL1        0.1021
     26 C          63.2812   83.7354   10.1452 C.ar    1  UNL1        0.0208
     27 C          64.2480   82.6459   10.5036 C.ar    1  UNL1        0.0032
     28 C          64.7538   82.5251   11.9105 C.ar    1  UNL1        0.0207
     29 C          64.2930   83.4936   12.9591 C.ar    1  UNL1        0.0989
     30 N          63.3262   84.5831   12.6007 N.ar    1  UNL1       -0.2422
     31 C          61.9616   85.5890    8.1724 C.3     1  UNL1        0.4232
     32 F          62.4644   84.9778    6.8982 F       1  UNL1       -0.1657
     33 F          60.5982   85.0232    7.9058 F       1  UNL1       -0.1657
     34 F          63.3250   86.1548    8.4390 F       1  UNL1       -0.1657
@<TRIPOS>UNITY_ATOM_ATTR
17 1
charge -1
@<TRIPOS>BOND
     1    17    18   ar
     2    18    19   ar
     3    18    13    1
     4    13    14    1
     5    14    15    1
     6    15    12    1
     7    12     6    1
     8     6     7   ar
     9     7     8   ar
    10     8     9   ar
    11     9     1    1
    12     1     2   ar
    13     2     3   ar
    14     3     4   ar
    15     4    20    1
    16    20    21   ar
    17    21    22   ar
    18    22    23   ar
    19    23    25    1
    20    25    26   ar
    21    26    27   ar
    22    27    28   ar
    23    28    29   ar
    24    29    30   ar
    25    23    24   ar
    26    24    31    1
    27    31    32    1
    28    31    33    1
    29    31    34    1
    30     4     5   ar
    31     9    10   ar
    32    10    11   ar
    33    15    16    1
    34    16    13    1
    35    11     6   ar
    36     5     1   ar
    37    24    20   ar
    38    30    25   ar
@<TRIPOS>MOLECULE
*****
 34 38 0 0 0
SMALL
GASTEIGER

@<TRIPOS>ATOM
      1 C          59.4886   89.3291    6.6884 C.ar    1  UNL1        0.2037
      2 N          58.2571   88.5526    7.0501 N.ar    1  UNL1       -0.0555
      3 O          58.6213   87.5863    8.1380 O.2     1  UNL1       -0.3291
      4 C          60.0778   87.7656    8.4488 C.ar    1  UNL1        0.2973
      5 N          60.6138   88.8427    7.5529 N.ar    1  UNL1       -0.1843
      6 C          59.7594   92.5518    3.5595 C.ar    1  UNL1       -0.0061
      7 C          58.4312   92.2009    4.1617 C.ar    1  UNL1       -0.0028
      8 C          58.3409   91.1267    5.2046 C.ar    1  UNL1        0.0029
      9 C          59.5789   90.4034    5.6454 C.ar    1  UNL1        0.0391
     10 C          60.9071   90.7542    5.0432 C.ar    1  UNL1        0.0029
     11 C          60.9974   91.8285    4.0002 C.ar    1  UNL1       -0.0028
     12 C          59.8497   93.6261    2.5164 C.3     1  UNL1        0.0992
     13 C          62.7841   93.8600    0.4073 C.3     1  UNL1        0.0684
     14 C          62.1966   94.6980    1.5039 C.3     1  UNL1        0.0793
     15 N          61.0652   93.7230    1.6428 N.3     1  UNL1       -0.2682
     16 C          61.6527   92.8849    0.5462 C.3     1  UNL1        0.0793
     17 O          63.9346   93.5035   -1.8947 O.co2   1  UNL1       -0.5491
     18 C          63.9997   93.9568   -0.4664 C.2     1  UNL1        0.0527
     19 O          65.2801   94.5069    0.0884 O.co2   1  UNL1       -0.5491
     20 C          60.8608   87.0019    9.4753 C.ar    1  UNL1        0.2364
     21 O          61.0395   85.5132    9.5198 O.2     1  UNL1       -0.3485
     22 N          61.8917   85.1840   10.7094 N.ar    1  UNL1       -0.0753
     23 C          62.2397   86.4692   11.4002 C.ar    1  UNL1        0.1445
     24 C          61.6026   87.5927   10.6374 C.ar    1  UNL1        0.1355
     25 C          63.0777   86.6067   12.6366 C.ar    1  UNL1        0.1021
     26 C          63.5222   85.3827   13.3813 C.ar    1  UNL1        0.0208
     27 C          64.3603   85.5202   14.6178 C.ar    1  UNL1        0.0032
     28 C          64.7537   86.8815   15.1095 C.ar    1  UNL1        0.0207
     29 C          64.3092   88.1054   14.3649 C.ar    1  UNL1        0.0989
     30 N          63.4712   87.9680   13.1285 N.ar    1  UNL1       -0.2422
     31 C          61.6916   89.0509   10.9772 C.3     1  UNL1        0.4232
     32 F          61.7805   90.5093   11.3170 F       1  UNL1       -0.1657
     33 F          62.8894   89.1859   10.0843 F       1  UNL1       -0.1657
     34 F          60.4938   88.9160   11.8701 F       1  UNL1       -0.1657
@<TRIPOS>UNITY_ATOM_ATTR
17 1
charge -1
@<TRIPOS>BOND
     1    17    18   ar
     2    18    19   ar
     3    18    13    1
     4    13    14    1
     5    14    15    1
     6    15    12    1
     7    12     6    1
     8     6     7   ar
     9     7     8   ar
    10     8     9   ar
    11     9     1    1
    12     1     2   ar
    13     2     3   ar
    14     3     4   ar
    15     4    20    1
    16    20    21   ar
    17    21    22   ar
    18    22    23   ar
    19    23    25    1
    20    25    26   ar
    21    26    27   ar
    22    27    28   ar
    23    28    29   ar
    24    29    30   ar
    25    23    24   ar
    26    24    31    1
    27    31    32    1
    28    31    33    1
    29    31    34    1
    30     4     5   ar
    31     9    10   ar
    32    10    11   ar
    33    15    16    1
    34    16    13    1
    35    11     6   ar
    36     5     1   ar
    37    24    20   ar
    38    30    25   ar
@<TRIPOS>MOLECULE
*****
 34 38 0 0 0
SMALL
GASTEIGER

@<TRIPOS>ATOM
      1 C          60.6316   93.2284    2.8797 C.ar    1  UNL1        0.2037
      2 N          59.9270   94.4960    2.4962 N.ar    1  UNL1       -0.0555
      3 O          60.7686   95.2036    1.4760 O.2     1  UNL1       -0.3291
      4 C          61.9933   94.3734    1.2289 C.ar    1  UNL1        0.2973
      5 N          61.9086   93.1527    2.0965 N.ar    1  UNL1       -0.1843
      6 C          59.1706   90.1870    5.8572 C.ar    1  UNL1       -0.0061
      7 C          60.6282   90.2568    5.5103 C.ar    1  UNL1       -0.0028
      8 C          61.1152   91.2706    4.5178 C.ar    1  UNL1        0.0029
      9 C          60.1445   92.2146    3.8723 C.ar    1  UNL1        0.0391
     10 C          58.6869   92.1448    4.2192 C.ar    1  UNL1        0.0029
     11 C          58.2000   91.1310    5.2117 C.ar    1  UNL1       -0.0028
     12 C          58.6836   89.1732    6.8498 C.3     1  UNL1        0.0992
     13 C          60.7706   88.2414    9.6586 C.3     1  UNL1        0.0684
     14 C          60.1588   89.5209    9.1703 C.3     1  UNL1        0.0793
     15 N          59.5481   88.7873    8.0132 N.3     1  UNL1       -0.2682
     16 C          60.1599   87.5078    8.5016 C.3     1  UNL1        0.0793
     17 O          61.3975   86.5572   11.5349 O.co2   1  UNL1       -0.5491
     18 C          61.6352   87.8554   10.8221 C.2     1  UNL1        0.0527
     19 O          62.7373   88.7677   11.2728 O.co2   1  UNL1       -0.5491
     20 C          63.1071   94.7056    0.2807 C.ar    1  UNL1        0.2364
     21 O          64.4995   95.1115    0.6637 O.2     1  UNL1       -0.3485
     22 N          65.2770   95.3470   -0.5972 N.ar    1  UNL1       -0.0753
     23 C          64.3652   95.0868   -1.7595 C.ar    1  UNL1        0.1445
     24 C          63.0242   94.6904   -1.2169 C.ar    1  UNL1        0.1355
     25 C          64.7304   95.2026   -3.2097 C.ar    1  UNL1        0.1021
     26 C          65.1949   96.5170   -3.7634 C.ar    1  UNL1        0.0208
     27 C          65.5601   96.6329   -5.2137 C.ar    1  UNL1        0.0032
     28 C          65.4608   95.4344   -6.1101 C.ar    1  UNL1        0.0207
     29 C          64.9964   94.1200   -5.5564 C.ar    1  UNL1        0.0989
     30 N          64.6311   94.0041   -4.1062 N.ar    1  UNL1       -0.2422
     31 C          61.8128   94.3402   -2.0293 C.3     1  UNL1        0.4232
     32 F          60.6014   93.9901   -2.8417 F       1  UNL1       -0.1657
     33 F          62.2953   92.9241   -2.1384 F       1  UNL1       -0.1657
     34 F          61.3303   95.7563   -1.9201 F       1  UNL1       -0.1657
@<TRIPOS>UNITY_ATOM_ATTR
17 1
charge -1
@<TRIPOS>BOND
     1    17    18   ar
     2    18    19   ar
     3    18    13    1
     4    13    14    1
     5    14    15    1
     6    15    12    1
     7    12     6    1
     8     6     7   ar
     9     7     8   ar
    10     8     9   ar
    11     9     1    1
    12     1     2   ar
    13     2     3   ar
    14     3     4   ar
    15     4    20    1
    16    20    21   ar
    17    21    22   ar
    18    22    23   ar
    19    23    25    1
    20    25    26   ar
    21    26    27   ar
    22    27    28   ar
    23    28    29   ar
    24    29    30   ar
    25    23    24   ar
    26    24    31    1
    27    31    32    1
    28    31    33    1
    29    31    34    1
    30     4     5   ar
    31     9    10   ar
    32    10    11   ar
    33    15    16    1
    34    16    13    1
    35    11     6   ar
    36     5     1   ar
    37    24    20   ar
    38    30    25   ar
@<TRIPOS>MOLECULE
*****
 34 38 0 0 0
SMALL
GASTEIGER

@<TRIPOS>ATOM
      1 C          59.4588   90.0594    6.4131 C.ar    1  UNL1        0.2037
      2 N          58.1495   90.0448    5.6812 N.ar    1  UNL1       -0.0555
      3 O          58.2520   90.9995    4.5288 O.2     1  UNL1       -0.3291
      4 C          59.6246   91.6042    4.5485 C.ar    1  UNL1        0.2973
      5 N          60.3704   91.0232    5.7131 N.ar    1  UNL1       -0.1843
      6 C          60.4734   87.6372   10.0674 C.ar    1  UNL1       -0.0061
      7 C          59.7853   86.9870    8.9039 C.ar    1  UNL1       -0.0028
      8 C          59.4471   87.7944    7.6858 C.ar    1  UNL1        0.0029
      9 C          59.7970   89.2520    7.6313 C.ar    1  UNL1        0.0391
     10 C          60.4851   89.9022    8.7948 C.ar    1  UNL1        0.0029
     11 C          60.8233   89.0948   10.0128 C.ar    1  UNL1       -0.0028
     12 C          60.8116   86.8298   11.2855 C.3     1  UNL1        0.0992
     13 C          63.2280   84.1419   11.0627 C.3     1  UNL1        0.0684
     14 C          62.4435   84.7734   12.1743 C.3     1  UNL1        0.0793
     15 N          61.8125   85.7164   11.1932 N.3     1  UNL1       -0.2682
     16 C          62.5970   85.0849   10.0816 C.3     1  UNL1        0.0793
     17 O          64.8044   82.6458    9.6390 O.co2   1  UNL1       -0.5491
     18 C          64.2290   83.0285   10.9703 C.2     1  UNL1        0.0527
     19 O          64.6545   82.2978   12.2093 O.co2   1  UNL1       -0.5491
     20 C          60.1577   92.6128    3.5747 C.ar    1  UNL1        0.2364
     21 O          59.5100   93.9163    3.2120 O.2     1  UNL1       -0.3485
     22 N          60.3842   94.6041    2.2057 N.ar    1  UNL1       -0.0753
     23 C          61.5721   93.7258    1.9464 C.ar    1  UNL1        0.1445
     24 C          61.4322   92.4951    2.7924 C.ar    1  UNL1        0.1355
     25 C          62.7017   94.0255    1.0061 C.ar    1  UNL1        0.1021
     26 C          62.5760   93.6856   -0.4496 C.ar    1  UNL1        0.0208
     27 C          63.7056   93.9854   -1.3899 C.ar    1  UNL1        0.0032
     28 C          64.9607   94.6250   -0.8747 C.ar    1  UNL1        0.0207
     29 C          65.0864   94.9649    0.5809 C.ar    1  UNL1        0.0989
     30 N          63.9568   94.6652    1.5213 N.ar    1  UNL1       -0.2422
     31 C          62.3972   91.3481    2.8468 C.3     1  UNL1        0.4232
     32 F          63.3624   90.2011    2.9011 F       1  UNL1       -0.1657
     33 F          62.0283   90.9712    1.4425 F       1  UNL1       -0.1657
     34 F          62.7662   91.7250    4.2510 F       1  UNL1       -0.1657
@<TRIPOS>UNITY_ATOM_ATTR
17 1
charge -1
@<TRIPOS>BOND
     1    17    18   ar
     2    18    19   ar
     3    18    13    1
     4    13    14    1
     5    14    15    1
     6    15    12    1
     7    12     6    1
     8     6     7   ar
     9     7     8   ar
    10     8     9   ar
    11     9     1    1
    12     1     2   ar
    13     2     3   ar
    14     3     4   ar
    15     4    20    1
    16    20    21   ar
    17    21    22   ar
    18    22    23   ar
    19    23    25    1
    20    25    26   ar
    21    26    27   ar
    22    27    28   ar
    23    28    29   ar
    24    29    30   ar
    25    23    24   ar
    26    24    31    1
    27    31    32    1
    28    31    33    1
    29    31    34    1
    30     4     5   ar
    31     9    10   ar
    32    10    11   ar
    33    15    16    1
    34    16    13    1
    35    11     6   ar
    36     5     1   ar
    37    24    20   ar
    38    30    25   ar
