@<TRIPOS>MOLECULE
*****
 30 33 0 0 0
SMALL
GASTEIGER

@<TRIPOS>ATOM
      1 C          61.8033   86.8938   10.7288 C.ar    1  UNL1        0.1105
      2 C          60.8023   86.5083    9.6803 C.ar    1  UNL1        0.0200
      3 C          60.2642   87.5454    8.7397 C.ar    1  UNL1        0.0160
      4 C          60.7272   88.9680    8.8475 C.ar    1  UNL1        0.0504
      5 C          61.7283   89.3536    9.8959 C.ar    1  UNL1        0.0160
      6 C          62.2663   88.3165   10.8365 C.ar    1  UNL1        0.0200
      7 N          60.1892   90.0052    7.9067 N.am    1  UNL1       -0.2839
      8 C          59.5280   89.5863    6.6272 C.2     1  UNL1        0.2260
      9 O          59.4049   88.1303    6.2882 O.2     1  UNL1       -0.2748
     10 H          60.2700   90.9608    8.1292 H       1  UNL1        0.1549
     11 C          58.9899   90.6234    5.6864 C.3     1  UNL1        0.0812
     12 C          57.8489   91.4629    5.1933 C.3     1  UNL1        0.0143
     13 C          59.1990   91.5802    4.5503 C.3     1  UNL1        0.0330
     14 C          60.0992   92.2003    3.5231 C.ar    1  UNL1       -0.0029
     15 C          61.5757   91.9392    3.5643 C.ar    1  UNL1       -0.0011
     16 C          62.4759   92.5593    2.5371 C.ar    1  UNL1        0.0204
     17 C          61.8995   93.4404    1.4686 C.ar    1  UNL1        0.0989
     18 N          60.4230   93.7014    1.4274 N.ar    1  UNL1       -0.2426
     19 C          59.5228   93.0813    2.4547 C.ar    1  UNL1        0.0946
     20 S          62.3414   85.8567   11.6695 S.O2    1  UNL1        0.0305
     21 O          61.7410   84.7754   10.8209 O.2     1  UNL1       -0.1641
     22 O          62.9418   86.9380   12.5181 O.2     1  UNL1       -0.1641
     23 N          63.4527   82.6819   13.6062 N.ar    1  UNL1       -0.2481
     24 C          62.7835   83.3333   12.4324 C.ar    1  UNL1        0.1154
     25 C          62.8794   84.8196   12.6102 C.ar    1  UNL1        0.1497
     26 C          63.6079   85.0868   13.8939 C.ar    1  UNL1        0.1404
     27 N          63.9622   83.7657   14.5095 N.ar    1  UNL1       -0.1662
     28 C          63.5885   81.2059   13.8363 C.3     1  UNL1        0.1276
     29 C          61.0479   80.7157   14.0703 C.3     1  UNL1        0.0021
     30 C          62.4141   80.3004   13.6109 C.3     1  UNL1        0.0264
@<TRIPOS>BOND
     1    29    30    1
     2    30    28    1
     3    28    23    1
     4    23    24   ar
     5    24    25   ar
     6    25    20    1
     7    20    21    2
     8    20    22    2
     9    20     1    1
    10     1     2   ar
    11     2     3   ar
    12     3     4   ar
    13     4     7    1
    14     7     8   am
    15     8     9    2
    16    11     8    1
    17    11    12    1
    18    12    13    1
    19    13    14    1
    20    14    15   ar
    21    15    16   ar
    22    16    17   ar
    23    17    18   ar
    24    18    19   ar
    25     4     5   ar
    26     5     6   ar
    27    25    26   ar
    28    26    27   ar
    29    27    23   ar
    30     6     1   ar
    31    13    11    1
    32    19    14   ar
    33     7    10    1
@<TRIPOS>MOLECULE
*****
 30 33 0 0 0
SMALL
GASTEIGER

@<TRIPOS>ATOM
      1 C          61.0785   86.7966    9.6379 C.ar    1  UNL1        0.1105
      2 C          61.0436   88.2803    9.8556 C.ar    1  UNL1        0.0200
      3 C          60.3171   89.1638    8.8852 C.ar    1  UNL1        0.0160
      4 C          59.6254   88.5635    7.6972 C.ar    1  UNL1        0.0504
      5 C          59.6603   87.0798    7.4796 C.ar    1  UNL1        0.0160
      6 C          60.3868   86.1964    8.4500 C.ar    1  UNL1        0.0200
      7 N          58.8988   89.4470    6.7269 N.am    1  UNL1       -0.2839
      8 C          59.6659   90.4097    5.8697 C.2     1  UNL1        0.2260
      9 O          61.1595   90.4889    5.9828 O.2     1  UNL1       -0.2748
     10 H          57.9185   89.3951    6.6526 H       1  UNL1        0.1549
     11 C          58.9393   91.2932    4.8993 C.3     1  UNL1        0.0812
     12 C          57.6769   91.9676    4.4505 C.3     1  UNL1        0.0143
     13 C          58.9433   92.1491    3.6675 C.3     1  UNL1        0.0330
     14 C          59.6768   92.7481    2.5042 C.ar    1  UNL1       -0.0029
     15 C          58.9602   92.9873    1.2084 C.ar    1  UNL1       -0.0011
     16 C          59.6937   93.5862    0.0451 C.ar    1  UNL1        0.0204
     17 C          61.1439   93.9460    0.1777 C.ar    1  UNL1        0.0989
     18 N          61.8605   93.7068    1.4735 N.ar    1  UNL1       -0.2426
     19 C          61.1270   93.1078    2.6368 C.ar    1  UNL1        0.0946
     20 S          61.8050   85.9131   10.6083 S.O2    1  UNL1        0.0305
     21 O          61.0867   86.5735   11.7475 O.2     1  UNL1       -0.1641
     22 O          62.5234   85.2527    9.4691 O.2     1  UNL1       -0.1641
     23 N          63.5133   83.0767   12.6336 N.ar    1  UNL1       -0.2481
     24 C          62.7380   83.5503   11.4401 C.ar    1  UNL1        0.1154
     25 C          62.5316   85.0296   11.5786 C.ar    1  UNL1        0.1497
     26 C          63.1793   85.4702   12.8577 C.ar    1  UNL1        0.1404
     27 N          63.7860   84.2633   13.5098 N.ar    1  UNL1       -0.1662
     28 C          63.9408   81.6645   12.9036 C.3     1  UNL1        0.1276
     29 C          61.6515   81.1672   14.0270 C.3     1  UNL1        0.0021
     30 C          62.9688   80.6866   13.4945 C.3     1  UNL1        0.0264
@<TRIPOS>BOND
     1    29    30    1
     2    30    28    1
     3    28    23    1
     4    23    24   ar
     5    24    25   ar
     6    25    20    1
     7    20    21    2
     8    20    22    2
     9    20     1    1
    10     1     2   ar
    11     2     3   ar
    12     3     4   ar
    13     4     7    1
    14     7     8   am
    15     8     9    2
    16    11     8    1
    17    11    12    1
    18    12    13    1
    19    13    14    1
    20    14    15   ar
    21    15    16   ar
    22    16    17   ar
    23    17    18   ar
    24    18    19   ar
    25     4     5   ar
    26     5     6   ar
    27    25    26   ar
    28    26    27   ar
    29    27    23   ar
    30     6     1   ar
    31    13    11    1
    32    19    14   ar
    33     7    10    1
@<TRIPOS>MOLECULE
*****
 30 33 0 0 0
SMALL
GASTEIGER

@<TRIPOS>ATOM
      1 C          61.0959   86.9113    9.6554 C.ar    1  UNL1        0.1105
      2 C          61.1134   88.3977    9.8560 C.ar    1  UNL1        0.0200
      3 C          60.3728   89.2914    8.9058 C.ar    1  UNL1        0.0160
      4 C          59.6148   88.6987    7.7551 C.ar    1  UNL1        0.0504
      5 C          59.5973   87.2123    7.5546 C.ar    1  UNL1        0.0160
      6 C          60.3379   86.3186    8.5047 C.ar    1  UNL1        0.0200
      7 N          58.8742   89.5924    6.8049 N.am    1  UNL1       -0.2839
      8 C          59.6270   90.3750    5.7702 C.2     1  UNL1        0.2260
      9 O          61.1205   90.2638    5.6855 O.2     1  UNL1       -0.2748
     10 H          57.8939   89.6654    6.8605 H       1  UNL1        0.1549
     11 C          58.8864   91.2687    4.8200 C.3     1  UNL1        0.0812
     12 C          57.6102   91.9208    4.3774 C.3     1  UNL1        0.0143
     13 C          58.8799   92.1646    3.6169 C.3     1  UNL1        0.0330
     14 C          59.6092   92.8225    2.4833 C.ar    1  UNL1       -0.0029
     15 C          61.0630   93.1638    2.6243 C.ar    1  UNL1       -0.0011
     16 C          61.7924   93.8217    1.4906 C.ar    1  UNL1        0.0204
     17 C          61.0679   94.1383    0.2159 C.ar    1  UNL1        0.0989
     18 N          59.6140   93.7970    0.0749 N.ar    1  UNL1       -0.2426
     19 C          58.8847   93.1390    1.2086 C.ar    1  UNL1        0.0946
     20 S          61.8365   86.0175   10.6056 S.O2    1  UNL1        0.0305
     21 O          62.4515   85.2932    9.4450 O.2     1  UNL1       -0.1641
     22 O          61.2216   86.7419   11.7662 O.2     1  UNL1       -0.1641
     23 N          63.5842   84.2320   13.5759 N.ar    1  UNL1       -0.2481
     24 C          62.7980   85.3807   13.0170 C.ar    1  UNL1        0.1154
     25 C          62.5771   85.1239   11.5558 C.ar    1  UNL1        0.1497
     26 C          63.2268   83.8164   11.2115 C.ar    1  UNL1        0.1404
     27 N          63.8492   83.2652   12.4600 N.ar    1  UNL1       -0.1662
     28 C          64.0276   84.0772   15.0005 C.3     1  UNL1        0.1276
     29 C          62.8910   85.6537   16.7246 C.3     1  UNL1        0.0021
     30 C          64.0866   85.2746   15.9019 C.3     1  UNL1        0.0264
@<TRIPOS>BOND
     1    29    30    1
     2    30    28    1
     3    28    23    1
     4    23    24   ar
     5    24    25   ar
     6    25    20    1
     7    20    21    2
     8    20    22    2
     9    20     1    1
    10     1     2   ar
    11     2     3   ar
    12     3     4   ar
    13     4     7    1
    14     7     8   am
    15     8     9    2
    16    11     8    1
    17    11    12    1
    18    12    13    1
    19    13    14    1
    20    14    15   ar
    21    15    16   ar
    22    16    17   ar
    23    17    18   ar
    24    18    19   ar
    25     4     5   ar
    26     5     6   ar
    27    25    26   ar
    28    26    27   ar
    29    27    23   ar
    30     6     1   ar
    31    13    11    1
    32    19    14   ar
    33     7    10    1
@<TRIPOS>MOLECULE
*****
 30 33 0 0 0
SMALL
GASTEIGER

@<TRIPOS>ATOM
      1 C          63.5076   86.7017   13.5364 C.ar    1  UNL1        0.1105
      2 C          63.0347   87.4580   12.3305 C.ar    1  UNL1        0.0200
      3 C          63.3466   88.9186   12.1914 C.ar    1  UNL1        0.0160
      4 C          64.1314   89.6229   13.2582 C.ar    1  UNL1        0.0504
      5 C          64.6043   88.8665   14.4641 C.ar    1  UNL1        0.0160
      6 C          64.2924   87.4060   14.6032 C.ar    1  UNL1        0.0200
      7 N          64.4433   91.0835   13.1191 N.am    1  UNL1       -0.2839
      8 C          65.7779   91.6104   13.5562 C.2     1  UNL1        0.2260
      9 O          66.8006   90.6767   14.1325 O.2     1  UNL1       -0.2748
     10 H          63.7720   91.6963   12.7408 H       1  UNL1        0.1549
     11 C          66.0897   93.0711   13.4171 C.3     1  UNL1        0.0812
     12 C          66.4090   94.3965   14.0425 C.3     1  UNL1        0.0143
     13 C          66.3106   94.2755   12.5507 C.3     1  UNL1        0.0330
     14 C          66.3813   94.9009   11.1892 C.ar    1  UNL1       -0.0029
     15 C          67.1134   94.2040   10.0808 C.ar    1  UNL1       -0.0011
     16 C          67.1841   94.8295    8.7193 C.ar    1  UNL1        0.0204
     17 C          66.5227   96.1518    8.4661 C.ar    1  UNL1        0.0989
     18 N          65.7907   96.8487    9.5745 N.ar    1  UNL1       -0.2426
     19 C          65.7200   96.2232   10.9360 C.ar    1  UNL1        0.0946
     20 S          63.1957   85.2411   13.6755 S.O2    1  UNL1        0.0305
     21 O          63.5184   85.0340   12.2254 O.2     1  UNL1       -0.1641
     22 O          62.8730   85.4481   15.1256 O.2     1  UNL1       -0.1641
     23 N          62.5075   81.4405   13.2918 N.ar    1  UNL1       -0.2481
     24 C          62.8681   82.7725   12.7039 C.ar    1  UNL1        0.1154
     25 C          62.8838   83.7805   13.8147 C.ar    1  UNL1        0.1497
     26 C          62.5329   83.0714   15.0890 C.ar    1  UNL1        0.1404
     27 N          62.3003   81.6252   14.7659 N.ar    1  UNL1       -0.1662
     28 C          62.3769   80.1503   12.5379 C.3     1  UNL1        0.1276
     29 C          62.6712   78.8076   10.3332 C.3     1  UNL1        0.0021
     30 C          62.9648   80.0216   11.1639 C.3     1  UNL1        0.0264
@<TRIPOS>BOND
     1    29    30    1
     2    30    28    1
     3    28    23    1
     4    23    24   ar
     5    24    25   ar
     6    25    20    1
     7    20    21    2
     8    20    22    2
     9    20     1    1
    10     1     2   ar
    11     2     3   ar
    12     3     4   ar
    13     4     7    1
    14     7     8   am
    15     8     9    2
    16    11     8    1
    17    11    12    1
    18    12    13    1
    19    13    14    1
    20    14    15   ar
    21    15    16   ar
    22    16    17   ar
    23    17    18   ar
    24    18    19   ar
    25     4     5   ar
    26     5     6   ar
    27    25    26   ar
    28    26    27   ar
    29    27    23   ar
    30     6     1   ar
    31    13    11    1
    32    19    14   ar
    33     7    10    1
@<TRIPOS>MOLECULE
*****
 30 33 0 0 0
SMALL
GASTEIGER

@<TRIPOS>ATOM
      1 C          63.6499   86.1432   13.7743 C.ar    1  UNL1        0.1105
      2 C          63.1894   86.9156   12.5738 C.ar    1  UNL1        0.0200
      3 C          63.4648   88.3870   12.4777 C.ar    1  UNL1        0.0160
      4 C          64.2008   89.0859   13.5821 C.ar    1  UNL1        0.0504
      5 C          64.6613   88.3135   14.7826 C.ar    1  UNL1        0.0160
      6 C          64.3859   86.8422   14.8787 C.ar    1  UNL1        0.0200
      7 N          64.4762   90.5573   13.4860 N.am    1  UNL1       -0.2839
      8 C          65.7635   91.1156   14.0161 C.2     1  UNL1        0.2260
      9 O          66.7755   90.2025   14.6424 O.2     1  UNL1       -0.2748
     10 H          63.8120   91.1566   13.0750 H       1  UNL1        0.1549
     11 C          66.0389   92.5870   13.9200 C.3     1  UNL1        0.0812
     12 C          66.3060   93.9048   14.5850 C.3     1  UNL1        0.0143
     13 C          66.2488   93.8178   13.0886 C.3     1  UNL1        0.0330
     14 C          66.3370   94.4781   11.7447 C.ar    1  UNL1       -0.0029
     15 C          66.0733   95.9488   11.6129 C.ar    1  UNL1       -0.0011
     16 C          66.1614   96.6091   10.2690 C.ar    1  UNL1        0.0204
     17 C          66.5133   95.7987    9.0567 C.ar    1  UNL1        0.0989
     18 N          66.7770   94.3279    9.1885 N.ar    1  UNL1       -0.2426
     19 C          66.6888   93.6676   10.5325 C.ar    1  UNL1        0.0946
     20 S          63.3745   84.6718   13.8704 S.O2    1  UNL1        0.0305
     21 O          62.3564   84.9322   14.9407 O.2     1  UNL1       -0.1641
     22 O          64.3927   84.4114   12.8001 O.2     1  UNL1       -0.1641
     23 N          61.9383   81.0745   14.1197 N.ar    1  UNL1       -0.2481
     24 C          61.7447   82.5594   14.0317 C.ar    1  UNL1        0.1154
     25 C          63.0992   83.2005   13.9665 C.ar    1  UNL1        0.1497
     26 C          64.1300   82.1119   14.0142 C.ar    1  UNL1        0.1404
     27 N          63.4126   80.7980   14.1089 N.ar    1  UNL1       -0.1662
     28 C          60.8491   80.0468   14.2038 C.3     1  UNL1        0.1276
     29 C          58.3756   79.6564   14.8964 C.3     1  UNL1        0.0021
     30 C          59.4114   80.4742   14.1833 C.3     1  UNL1        0.0264
@<TRIPOS>BOND
     1    29    30    1
     2    30    28    1
     3    28    23    1
     4    23    24   ar
     5    24    25   ar
     6    25    20    1
     7    20    21    2
     8    20    22    2
     9    20     1    1
    10     1     2   ar
    11     2     3   ar
    12     3     4   ar
    13     4     7    1
    14     7     8   am
    15     8     9    2
    16    11     8    1
    17    11    12    1
    18    12    13    1
    19    13    14    1
    20    14    15   ar
    21    15    16   ar
    22    16    17   ar
    23    17    18   ar
    24    18    19   ar
    25     4     5   ar
    26     5     6   ar
    27    25    26   ar
    28    26    27   ar
    29    27    23   ar
    30     6     1   ar
    31    13    11    1
    32    19    14   ar
    33     7    10    1
@<TRIPOS>MOLECULE
*****
 30 33 0 0 0
SMALL
GASTEIGER

@<TRIPOS>ATOM
      1 C          61.0590   93.3293    1.8473 C.ar    1  UNL1        0.1105
      2 C          59.8215   93.2891    2.6941 C.ar    1  UNL1        0.0200
      3 C          59.7636   92.3926    3.8953 C.ar    1  UNL1        0.0160
      4 C          60.9431   91.5365    4.2498 C.ar    1  UNL1        0.0504
      5 C          62.1806   91.5767    3.4030 C.ar    1  UNL1        0.0160
      6 C          62.2385   92.4731    2.2018 C.ar    1  UNL1        0.0200
      7 N          60.8852   90.6400    5.4511 N.am    1  UNL1       -0.2839
      8 C          59.5654   90.1119    5.9299 C.2     1  UNL1        0.2260
      9 O          58.3035   90.4803    5.2074 O.2     1  UNL1       -0.2748
     10 H          61.7134   90.3982    5.9253 H       1  UNL1        0.1549
     11 C          59.5074   89.2155    7.1312 C.3     1  UNL1        0.0812
     12 C          59.0071   87.9690    7.7989 C.3     1  UNL1        0.0143
     13 C          59.9073   88.9093    8.5441 C.3     1  UNL1        0.0330
     14 C          60.6579   89.2754    9.7901 C.ar    1  UNL1       -0.0029
     15 C          62.0145   89.9077    9.6899 C.ar    1  UNL1       -0.0011
     16 C          62.7651   90.2738   10.9359 C.ar    1  UNL1        0.0204
     17 C          62.1591   90.0077   12.2821 C.ar    1  UNL1        0.0989
     18 N          60.8026   89.3755   12.3822 N.ar    1  UNL1       -0.2426
     19 C          60.0520   89.0093   11.1361 C.ar    1  UNL1        0.0946
     20 S          61.1169   94.2258    0.6460 S.O2    1  UNL1        0.0305
     21 O          59.9037   94.9598    1.1352 O.2     1  UNL1       -0.1641
     22 O          62.3301   93.4918    0.1569 O.2     1  UNL1       -0.1641
     23 N          61.9118   96.1842   -2.6095 N.ar    1  UNL1       -0.2481
     24 C          62.2569   95.1354   -1.5941 C.ar    1  UNL1        0.1154
     25 C          61.1749   95.1222   -0.5552 C.ar    1  UNL1        0.1497
     26 C          60.1611   96.1627   -0.9286 C.ar    1  UNL1        0.1404
     27 N          60.6165   96.8191   -2.1981 N.ar    1  UNL1       -0.1662
     28 C          62.7201   96.5362   -3.8230 C.3     1  UNL1        0.1276
     29 C          65.0860   96.6133   -4.8938 C.3     1  UNL1        0.0021
     30 C          64.1955   96.7762   -3.6978 C.3     1  UNL1        0.0264
@<TRIPOS>BOND
     1    29    30    1
     2    30    28    1
     3    28    23    1
     4    23    24   ar
     5    24    25   ar
     6    25    20    1
     7    20    21    2
     8    20    22    2
     9    20     1    1
    10     1     2   ar
    11     2     3   ar
    12     3     4   ar
    13     4     7    1
    14     7     8   am
    15     8     9    2
    16    11     8    1
    17    11    12    1
    18    12    13    1
    19    13    14    1
    20    14    15   ar
    21    15    16   ar
    22    16    17   ar
    23    17    18   ar
    24    18    19   ar
    25     4     5   ar
    26     5     6   ar
    27    25    26   ar
    28    26    27   ar
    29    27    23   ar
    30     6     1   ar
    31    13    11    1
    32    19    14   ar
    33     7    10    1
@<TRIPOS>MOLECULE
*****
 30 33 0 0 0
SMALL
GASTEIGER

@<TRIPOS>ATOM
      1 C          60.9757   93.2649    1.9769 C.ar    1  UNL1        0.1105
      2 C          59.7683   93.2364    2.8665 C.ar    1  UNL1        0.0200
      3 C          59.7381   92.3297    4.0610 C.ar    1  UNL1        0.0160
      4 C          60.9152   91.4516    4.3660 C.ar    1  UNL1        0.0504
      5 C          62.1226   91.4801    3.4765 C.ar    1  UNL1        0.0160
      6 C          62.1528   92.3867    2.2819 C.ar    1  UNL1        0.0200
      7 N          60.8850   90.5448    5.5606 N.am    1  UNL1       -0.2839
      8 C          59.5772   90.0069    6.0610 C.2     1  UNL1        0.2260
      9 O          58.2997   90.3757    5.3668 O.2     1  UNL1       -0.2748
     10 H          61.7235   90.3028    6.0163 H       1  UNL1        0.1549
     11 C          59.5470   89.1002    7.2556 C.3     1  UNL1        0.0812
     12 C          58.9475   87.9369    7.9886 C.3     1  UNL1        0.0143
     13 C          60.0940   88.6931    8.5916 C.3     1  UNL1        0.0330
     14 C          61.0718   88.8946    9.7111 C.ar    1  UNL1       -0.0029
     15 C          61.7504   90.2210    9.8845 C.ar    1  UNL1       -0.0011
     16 C          62.7282   90.4226   11.0040 C.ar    1  UNL1        0.0204
     17 C          63.0274   89.2977   11.9502 C.ar    1  UNL1        0.0989
     18 N          62.3488   87.9712   11.7768 N.ar    1  UNL1       -0.2426
     19 C          61.3709   87.7697   10.6572 C.ar    1  UNL1        0.0946
     20 S          61.0059   94.1717    0.7823 S.O2    1  UNL1        0.0305
     21 O          61.5699   93.0577   -0.0489 O.2     1  UNL1       -0.1641
     22 O          60.4419   95.2856    1.6136 O.2     1  UNL1       -0.1641
     23 N          60.4447   96.1674   -2.4990 N.ar    1  UNL1       -0.2481
     24 C          60.0218   95.1158   -1.5166 C.ar    1  UNL1        0.1154
     25 C          61.0361   95.0784   -0.4122 C.ar    1  UNL1        0.1497
     26 C          62.0861   96.1068   -0.7121 C.ar    1  UNL1        0.1404
     27 N          61.7206   96.7799   -2.0018 N.ar    1  UNL1       -0.1662
     28 C          59.7193   96.5410   -3.7577 C.3     1  UNL1        0.1276
     29 C          57.3998   95.7068   -4.5786 C.3     1  UNL1        0.0021
     30 C          58.8845   95.5207   -4.4732 C.3     1  UNL1        0.0264
@<TRIPOS>BOND
     1    29    30    1
     2    30    28    1
     3    28    23    1
     4    23    24   ar
     5    24    25   ar
     6    25    20    1
     7    20    21    2
     8    20    22    2
     9    20     1    1
    10     1     2   ar
    11     2     3   ar
    12     3     4   ar
    13     4     7    1
    14     7     8   am
    15     8     9    2
    16    11     8    1
    17    11    12    1
    18    12    13    1
    19    13    14    1
    20    14    15   ar
    21    15    16   ar
    22    16    17   ar
    23    17    18   ar
    24    18    19   ar
    25     4     5   ar
    26     5     6   ar
    27    25    26   ar
    28    26    27   ar
    29    27    23   ar
    30     6     1   ar
    31    13    11    1
    32    19    14   ar
    33     7    10    1
@<TRIPOS>MOLECULE
*****
 30 33 0 0 0
SMALL
GASTEIGER

@<TRIPOS>ATOM
      1 C          59.8956   88.7935    7.7304 C.ar    1  UNL1        0.1105
      2 C          60.5088   89.3416    8.9848 C.ar    1  UNL1        0.0200
      3 C          60.9835   88.4071   10.0578 C.ar    1  UNL1        0.0160
      4 C          60.8451   86.9245    9.8763 C.ar    1  UNL1        0.0504
      5 C          60.2320   86.3765    8.6219 C.ar    1  UNL1        0.0160
      6 C          59.7572   87.3110    7.5489 C.ar    1  UNL1        0.0200
      7 N          61.3199   85.9900   10.9493 N.am    1  UNL1       -0.2839
      8 C          62.4434   86.3977   11.8558 C.2     1  UNL1        0.2260
      9 O          63.0920   87.7399   11.6892 O.2     1  UNL1       -0.2748
     10 H          60.8942   85.1091   11.0586 H       1  UNL1        0.1549
     11 C          62.9182   85.4632   12.9288 C.3     1  UNL1        0.0812
     12 C          63.6254   85.2331   14.2314 C.3     1  UNL1        0.0143
     13 C          63.0333   84.0748   13.4847 C.3     1  UNL1        0.0330
     14 C          62.7579   82.6044   13.3744 C.ar    1  UNL1       -0.0029
     15 C          63.1260   81.8642   12.1228 C.ar    1  UNL1       -0.0011
     16 C          62.8506   80.3939   12.0126 C.ar    1  UNL1        0.0204
     17 C          62.2072   79.6637   13.1540 C.ar    1  UNL1        0.0989
     18 N          61.8391   80.4039   14.4056 N.ar    1  UNL1       -0.2426
     19 C          62.1145   81.8743   14.5158 C.ar    1  UNL1        0.0946
     20 S          59.4208   89.7281    6.6574 S.O2    1  UNL1        0.0305
     21 O          60.7910   90.3331    6.5779 O.2     1  UNL1       -0.1641
     22 O          58.0506   89.1231    6.7368 O.2     1  UNL1       -0.1641
     23 N          58.9248   92.2148    3.7187 N.ar    1  UNL1       -0.2481
     24 C          59.8149   91.3967    4.6066 C.ar    1  UNL1        0.1154
     25 C          58.9460   90.6625    5.5844 C.ar    1  UNL1        0.1497
     26 C          57.5188   91.0269    5.3008 C.ar    1  UNL1        0.1404
     27 N          57.5057   91.9862    4.1477 N.ar    1  UNL1       -0.1662
     28 C          59.3748   93.1051    2.5985 C.3     1  UNL1        0.1276
     29 C          61.2940   92.3836    1.0029 C.3     1  UNL1        0.0021
     30 C          60.8221   93.1441    2.2066 C.3     1  UNL1        0.0264
@<TRIPOS>BOND
     1    29    30    1
     2    30    28    1
     3    28    23    1
     4    23    24   ar
     5    24    25   ar
     6    25    20    1
     7    20    21    2
     8    20    22    2
     9    20     1    1
    10     1     2   ar
    11     2     3   ar
    12     3     4   ar
    13     4     7    1
    14     7     8   am
    15     8     9    2
    16    11     8    1
    17    11    12    1
    18    12    13    1
    19    13    14    1
    20    14    15   ar
    21    15    16   ar
    22    16    17   ar
    23    17    18   ar
    24    18    19   ar
    25     4     5   ar
    26     5     6   ar
    27    25    26   ar
    28    26    27   ar
    29    27    23   ar
    30     6     1   ar
    31    13    11    1
    32    19    14   ar
    33     7    10    1
@<TRIPOS>MOLECULE
*****
 30 33 0 0 0
SMALL
GASTEIGER

@<TRIPOS>ATOM
      1 C          64.4465   89.6958   13.4580 C.ar    1  UNL1        0.1105
      2 C          63.5571   89.1011   12.4068 C.ar    1  UNL1        0.0200
      3 C          62.9946   87.7231   12.5922 C.ar    1  UNL1        0.0160
      4 C          63.3216   86.9396   13.8288 C.ar    1  UNL1        0.0504
      5 C          64.2111   87.5343   14.8801 C.ar    1  UNL1        0.0160
      6 C          64.7736   88.9124   14.6946 C.ar    1  UNL1        0.0200
      7 N          62.7591   85.5615   14.0142 N.am    1  UNL1       -0.2839
      8 C          63.5795   84.3608   13.6465 C.2     1  UNL1        0.2260
      9 O          64.9624   84.5382   13.0933 O.2     1  UNL1       -0.2748
     10 H          61.8514   85.4450   14.3773 H       1  UNL1        0.1549
     11 C          63.0170   82.9826   13.8318 C.3     1  UNL1        0.0812
     12 C          62.3442   81.9600   14.6987 C.3     1  UNL1        0.0143
     13 C          62.7155   81.6183   13.2861 C.3     1  UNL1        0.0330
     14 C          62.7558   80.6335   12.1555 C.ar    1  UNL1       -0.0029
     15 C          63.0734   81.0997   10.7656 C.ar    1  UNL1       -0.0011
     16 C          63.1137   80.1149    9.6350 C.ar    1  UNL1        0.0204
     17 C          62.8364   78.6636    9.8942 C.ar    1  UNL1        0.0989
     18 N          62.5188   78.1974   11.2841 N.ar    1  UNL1       -0.2426
     19 C          62.4785   79.1823   12.4147 C.ar    1  UNL1        0.0946
     20 S          65.0091   91.0740   13.2726 S.O2    1  UNL1        0.0305
     21 O          64.0834   91.2959   12.1134 O.2     1  UNL1       -0.1641
     22 O          65.9347   90.8521   14.4318 O.2     1  UNL1       -0.1641
     23 N          66.2035   94.5724   12.0894 N.ar    1  UNL1       -0.2481
     24 C          65.5240   93.2614   11.8252 C.ar    1  UNL1        0.1154
     25 C          65.5716   92.4521   13.0872 C.ar    1  UNL1        0.1497
     26 C          66.2804   93.2628   14.1314 C.ar    1  UNL1        0.1404
     27 N          66.6710   94.5732   13.5147 N.ar    1  UNL1       -0.1662
     28 C          66.3838   95.6868   11.1017 C.3     1  UNL1        0.1276
     29 C          67.3939   96.1620    8.7556 C.3     1  UNL1        0.0021
     30 C          66.4603   95.3837    9.6346 C.3     1  UNL1        0.0264
@<TRIPOS>BOND
     1    29    30    1
     2    30    28    1
     3    28    23    1
     4    23    24   ar
     5    24    25   ar
     6    25    20    1
     7    20    21    2
     8    20    22    2
     9    20     1    1
    10     1     2   ar
    11     2     3   ar
    12     3     4   ar
    13     4     7    1
    14     7     8   am
    15     8     9    2
    16    11     8    1
    17    11    12    1
    18    12    13    1
    19    13    14    1
    20    14    15   ar
    21    15    16   ar
    22    16    17   ar
    23    17    18   ar
    24    18    19   ar
    25     4     5   ar
    26     5     6   ar
    27    25    26   ar
    28    26    27   ar
    29    27    23   ar
    30     6     1   ar
    31    13    11    1
    32    19    14   ar
    33     7    10    1
