@<TRIPOS>MOLECULE
*****
 28 31 0 0 0
SMALL
GASTEIGER

@<TRIPOS>ATOM
      1 C          64.3790   90.4667   13.5523 C.ar    1  UNL1        0.0985
      2 C          63.7313   90.6838   12.2168 C.ar    1  UNL1        0.1003
      3 N          64.4367   91.8208   11.5389 N.ar    1  UNL1       -0.2239
      4 C          65.5204   92.3064   12.4554 C.ar    1  UNL1        0.1786
      5 N          65.4847   91.4694   13.6997 N.ar    1  UNL1       -0.3052
      6 C          63.7540   85.4351   15.2004 C.ar    1  UNL1        0.1713
      7 C          63.2439   84.9275   16.5165 C.ar    1  UNL1        0.1302
      8 N          62.9077   86.1132   17.3716 N.ar    1  UNL1       -0.2227
      9 C          63.2100   87.3534   16.5840 C.ar    1  UNL1        0.1647
     10 C          63.0766   88.8103   16.9153 C.ar    1  UNL1        0.0405
     11 C          63.4662   89.8480   15.9048 C.ar    1  UNL1        0.0255
     12 C          63.9893   89.4289   14.5628 C.ar    1  UNL1        0.1187
     13 N          64.1227   87.9720   14.2315 N.ar    1  UNL1       -0.1616
     14 N          63.7331   86.9343   15.2420 N.ar    1  UNL1       -0.2010
     15 N          64.6575   83.7477   12.8902 N.1     1  UNL1       -0.1892
     16 C          64.2058   84.5914   14.0453 C.1     1  UNL1        0.1215
     17 C          62.5802   89.9014   11.6575 C.ar    1  UNL1        0.0202
     18 C          61.1745   90.2567   12.0418 C.ar    1  UNL1        0.0039
     19 C          60.0235   89.4743   11.4825 C.ar    1  UNL1        0.0306
     20 C          60.2781   88.3364   10.5389 C.ar    1  UNL1        0.1506
     21 F          59.1270   87.5540    9.9795 F       1  UNL1       -0.2033
     22 C          61.6839   87.9810   10.1545 C.ar    1  UNL1        0.0851
     23 CL         61.9385   86.8432    9.2109 Cl      1  UNL1       -0.0799
     24 C          62.8348   88.7635   10.7139 C.ar    1  UNL1        0.0152
     25 C          66.3950   91.6106   14.8835 C.3     1  UNL1        0.1393
     26 C          66.2497   92.7846   15.8057 C.3     1  UNL1        0.1616
     27 O          65.0727   92.8700   16.7315 O.3     1  UNL1       -0.3799
     28 H          64.2594   92.9700   16.2123 H       1  UNL1        0.2105
@<TRIPOS>BOND
     1    15    16    3
     2    16     6    1
     3     6     7   ar
     4     7     8   ar
     5     8     9   ar
     6     9    10   ar
     7    10    11   ar
     8    11    12   ar
     9    12     1    1
    10     1     2   ar
    11     2    17    1
    12    17    18   ar
    13    18    19   ar
    14    19    20   ar
    15    20    21    1
    16    20    22   ar
    17    22    23    1
    18    22    24   ar
    19     2     3   ar
    20     3     4   ar
    21     4     5   ar
    22     5    25    1
    23    25    26    1
    24    26    27    1
    25    12    13   ar
    26    13    14   ar
    27    14     6   ar
    28    14     9   ar
    29     5     1   ar
    30    24    17   ar
    31    27    28    1
@<TRIPOS>MOLECULE
*****
 28 31 0 0 0
SMALL
GASTEIGER

@<TRIPOS>ATOM
      1 C          64.2648   90.6800   12.8943 C.ar    1  UNL1        0.0985
      2 C          64.7136   90.2990   14.2740 C.ar    1  UNL1        0.1003
      3 N          65.7924   91.2543   14.6908 N.ar    1  UNL1       -0.2239
      4 C          66.0103   92.2256   13.5687 C.ar    1  UNL1        0.1786
      5 N          65.0662   91.8706   12.4584 N.ar    1  UNL1       -0.3052
      6 C          61.8276   86.3540   10.9527 C.ar    1  UNL1        0.1713
      7 C          60.6202   86.2663   10.0671 C.ar    1  UNL1        0.1302
      8 N          60.1546   87.6627    9.7786 N.ar    1  UNL1       -0.2227
      9 C          61.0743   88.6134   10.4860 C.ar    1  UNL1        0.1647
     10 C          61.1038   90.1111   10.5631 C.ar    1  UNL1        0.0405
     11 C          62.1673   90.7999   11.3658 C.ar    1  UNL1        0.0255
     12 C          63.2013   89.9911   12.0915 C.ar    1  UNL1        0.1187
     13 N          63.1718   88.4934   12.0144 N.ar    1  UNL1       -0.1616
     14 N          62.1083   87.8046   11.2117 N.ar    1  UNL1       -0.2010
     15 N          63.4043   84.0351   12.0191 N.1     1  UNL1       -0.1892
     16 C          62.6160   85.1946   11.4859 C.1     1  UNL1        0.1215
     17 C          64.1778   89.1624   15.0931 C.ar    1  UNL1        0.0202
     18 C          63.2865   89.4390   16.2674 C.ar    1  UNL1        0.0039
     19 C          62.7506   88.3024   17.0865 C.ar    1  UNL1        0.0306
     20 C          63.1061   86.8891   16.7313 C.ar    1  UNL1        0.1506
     21 F          62.5702   85.7525   17.5504 F       1  UNL1       -0.2033
     22 C          63.9974   86.6124   15.5570 C.ar    1  UNL1        0.0851
     23 CL         64.3529   85.1991   15.2018 Cl      1  UNL1       -0.0799
     24 C          64.5332   87.7491   14.7379 C.ar    1  UNL1        0.0152
     25 C          64.9448   92.5815   11.1432 C.3     1  UNL1        0.1393
     26 C          65.7644   93.8089   10.8755 C.3     1  UNL1        0.1616
     27 O          65.1042   95.0548   10.3637 O.3     1  UNL1       -0.3799
     28 H          64.7571   94.8940    9.4724 H       1  UNL1        0.2105
@<TRIPOS>BOND
     1    15    16    3
     2    16     6    1
     3     6     7   ar
     4     7     8   ar
     5     8     9   ar
     6     9    10   ar
     7    10    11   ar
     8    11    12   ar
     9    12     1    1
    10     1     2   ar
    11     2    17    1
    12    17    18   ar
    13    18    19   ar
    14    19    20   ar
    15    20    21    1
    16    20    22   ar
    17    22    23    1
    18    22    24   ar
    19     2     3   ar
    20     3     4   ar
    21     4     5   ar
    22     5    25    1
    23    25    26    1
    24    26    27    1
    25    12    13   ar
    26    13    14   ar
    27    14     6   ar
    28    14     9   ar
    29     5     1   ar
    30    24    17   ar
    31    27    28    1
@<TRIPOS>MOLECULE
*****
 28 31 0 0 0
SMALL
GASTEIGER

@<TRIPOS>ATOM
      1 C          64.4713   91.2267   13.6809 C.ar    1  UNL1        0.0985
      2 C          65.5900   92.2142   13.5281 C.ar    1  UNL1        0.1003
      3 N          65.9948   92.6717   14.8980 N.ar    1  UNL1       -0.2239
      4 C          65.1263   91.9668   15.8975 C.ar    1  UNL1        0.1786
      5 N          64.1848   91.0738   15.1453 N.ar    1  UNL1       -0.3052
      6 C          62.3522   86.9081   11.3824 C.ar    1  UNL1        0.1713
      7 C          61.6741   86.7823   10.0503 C.ar    1  UNL1        0.1302
      8 N          61.6714   88.1350    9.4022 N.ar    1  UNL1       -0.2227
      9 C          62.3477   89.0968   10.3336 C.ar    1  UNL1        0.1647
     10 C          62.6348   90.5651   10.2255 C.ar    1  UNL1        0.0405
     11 C          63.3427   91.2750   11.3412 C.ar    1  UNL1        0.0255
     12 C          63.7634   90.5167   12.5651 C.ar    1  UNL1        0.1187
     13 N          63.4763   89.0484   12.6732 N.ar    1  UNL1       -0.1616
     14 N          62.7685   88.3385   11.5575 N.ar    1  UNL1       -0.2010
     15 N          62.7974   84.6884   13.3510 N.1     1  UNL1       -0.1892
     16 C          62.5748   85.7982   12.3667 C.1     1  UNL1        0.1215
     17 C          66.1972   92.6651   12.2327 C.ar    1  UNL1        0.0202
     18 C          67.2200   91.8096   11.5458 C.ar    1  UNL1        0.0039
     19 C          67.8272   92.2606   10.2505 C.ar    1  UNL1        0.0306
     20 C          67.4116   93.5671    9.6419 C.ar    1  UNL1        0.1506
     21 F          68.0188   94.0180    8.3466 F       1  UNL1       -0.2033
     22 C          66.3887   94.4227   10.3288 C.ar    1  UNL1        0.0851
     23 CL         65.9730   95.7291    9.7203 Cl      1  UNL1       -0.0799
     24 C          65.7815   93.9716   11.6242 C.ar    1  UNL1        0.0152
     25 C          63.1401   90.1841   15.7511 C.3     1  UNL1        0.1393
     26 C          63.5094   88.8109   16.2285 C.3     1  UNL1        0.1616
     27 O          63.8724   87.7448   15.2379 O.3     1  UNL1       -0.3799
     28 H          63.0959   87.5259   14.6993 H       1  UNL1        0.2105
@<TRIPOS>BOND
     1    15    16    3
     2    16     6    1
     3     6     7   ar
     4     7     8   ar
     5     8     9   ar
     6     9    10   ar
     7    10    11   ar
     8    11    12   ar
     9    12     1    1
    10     1     2   ar
    11     2    17    1
    12    17    18   ar
    13    18    19   ar
    14    19    20   ar
    15    20    21    1
    16    20    22   ar
    17    22    23    1
    18    22    24   ar
    19     2     3   ar
    20     3     4   ar
    21     4     5   ar
    22     5    25    1
    23    25    26    1
    24    26    27    1
    25    12    13   ar
    26    13    14   ar
    27    14     6   ar
    28    14     9   ar
    29     5     1   ar
    30    24    17   ar
    31    27    28    1
@<TRIPOS>MOLECULE
*****
 28 31 0 0 0
SMALL
GASTEIGER

@<TRIPOS>ATOM
      1 C          63.5007   86.1333   13.2500 C.ar    1  UNL1        0.0985
      2 C          63.8167   84.8636   13.9835 C.ar    1  UNL1        0.1003
      3 N          64.5592   85.2242   15.2359 N.ar    1  UNL1       -0.2239
      4 C          64.7021   86.7169   15.2765 C.ar    1  UNL1        0.1786
      5 N          64.0478   87.2787   14.0491 N.ar    1  UNL1       -0.3052
      6 C          60.1943   88.5533    9.8389 C.ar    1  UNL1        0.1713
      7 C          59.7710   88.1228    8.4658 C.ar    1  UNL1        0.1302
      8 N          60.4529   86.8230    8.1568 N.ar    1  UNL1       -0.2227
      9 C          61.2977   86.4502    9.3389 C.ar    1  UNL1        0.1647
     10 C          62.1919   85.2752    9.6030 C.ar    1  UNL1        0.0405
     11 C          62.9262   85.1695   10.9067 C.ar    1  UNL1        0.0255
     12 C          62.7663   86.2390   11.9463 C.ar    1  UNL1        0.1187
     13 N          61.8722   87.4140   11.6822 N.ar    1  UNL1       -0.1616
     14 N          61.1379   87.5196   10.3786 N.ar    1  UNL1       -0.2010
     15 N          59.3092   91.0444   11.2571 N.1     1  UNL1       -0.1892
     16 C          59.7518   89.7989   10.5480 C.1     1  UNL1        0.1215
     17 C          63.4539   83.4766   13.5421 C.ar    1  UNL1        0.0202
     18 C          64.3277   82.7481   12.5645 C.ar    1  UNL1        0.0039
     19 C          63.9649   81.3611   12.1231 C.ar    1  UNL1        0.0306
     20 C          62.7283   80.7028   12.6592 C.ar    1  UNL1        0.1506
     21 F          62.3656   79.3159   12.2178 F       1  UNL1       -0.2033
     22 C          61.8545   81.4314   13.6369 C.ar    1  UNL1        0.0851
     23 CL         60.6180   80.7731   14.1730 Cl      1  UNL1       -0.0799
     24 C          62.2174   82.8183   14.0782 C.ar    1  UNL1        0.0152
     25 C          63.9568   88.7309   13.6849 C.3     1  UNL1        0.1393
     26 C          63.7749   89.7633   14.7577 C.3     1  UNL1        0.1616
     27 O          63.2726   91.1318   14.4043 O.3     1  UNL1       -0.3799
     28 H          63.9294   91.5849   13.8528 H       1  UNL1        0.2105
@<TRIPOS>BOND
     1    15    16    3
     2    16     6    1
     3     6     7   ar
     4     7     8   ar
     5     8     9   ar
     6     9    10   ar
     7    10    11   ar
     8    11    12   ar
     9    12     1    1
    10     1     2   ar
    11     2    17    1
    12    17    18   ar
    13    18    19   ar
    14    19    20   ar
    15    20    21    1
    16    20    22   ar
    17    22    23    1
    18    22    24   ar
    19     2     3   ar
    20     3     4   ar
    21     4     5   ar
    22     5    25    1
    23    25    26    1
    24    26    27    1
    25    12    13   ar
    26    13    14   ar
    27    14     6   ar
    28    14     9   ar
    29     5     1   ar
    30    24    17   ar
    31    27    28    1
@<TRIPOS>MOLECULE
*****
 28 31 0 0 0
SMALL
GASTEIGER

@<TRIPOS>ATOM
      1 C          63.9378   90.5759   12.8492 C.ar    1  UNL1        0.0985
      2 C          65.0139   91.6084   12.6880 C.ar    1  UNL1        0.1003
      3 N          64.8473   92.2451   11.3402 N.ar    1  UNL1       -0.2239
      4 C          63.6682   91.6061   10.6682 C.ar    1  UNL1        0.1786
      5 N          63.1061   90.5745   11.6009 N.ar    1  UNL1       -0.3052
      6 C          63.8867   85.8620   15.3393 C.ar    1  UNL1        0.1713
      7 C          63.5432   85.5496   16.7656 C.ar    1  UNL1        0.1302
      8 N          63.1893   86.8368   17.4496 N.ar    1  UNL1       -0.2227
      9 C          63.3141   87.9447   16.4461 C.ar    1  UNL1        0.1647
     10 C          63.0910   89.4242   16.5514 C.ar    1  UNL1        0.0405
     11 C          63.2988   90.3012   15.3525 C.ar    1  UNL1        0.0255
     12 C          63.7299   89.6987   14.0482 C.ar    1  UNL1        0.1187
     13 N          63.9530   88.2192   13.9428 N.ar    1  UNL1       -0.1616
     14 N          63.7452   87.3422   15.1418 N.ar    1  UNL1       -0.2010
     15 N          64.7120   83.8750   13.2485 N.1     1  UNL1       -0.1892
     16 C          64.2994   84.8685   14.2939 C.1     1  UNL1        0.1215
     17 C          66.0710   91.9450   13.6975 C.ar    1  UNL1        0.0202
     18 C          65.6786   92.3608   15.0843 C.ar    1  UNL1        0.0039
     19 C          66.7357   92.6974   16.0938 C.ar    1  UNL1        0.0306
     20 C          68.1854   92.6184   15.7166 C.ar    1  UNL1        0.1506
     21 F          69.2425   92.9550   16.7261 F       1  UNL1       -0.2033
     22 C          68.5779   92.2026   14.3297 C.ar    1  UNL1        0.0851
     23 CL         70.0274   92.1235   13.9525 Cl      1  UNL1       -0.0799
     24 C          67.5207   91.8660   13.3203 C.ar    1  UNL1        0.0152
     25 C          61.9205   89.6957   11.3323 C.3     1  UNL1        0.1393
     26 C          62.1208   88.3078   10.8000 C.3     1  UNL1        0.1616
     27 O          62.2730   87.1555   11.7482 O.3     1  UNL1       -0.3799
     28 H          63.0964   87.2569   12.2507 H       1  UNL1        0.2105
@<TRIPOS>BOND
     1    15    16    3
     2    16     6    1
     3     6     7   ar
     4     7     8   ar
     5     8     9   ar
     6     9    10   ar
     7    10    11   ar
     8    11    12   ar
     9    12     1    1
    10     1     2   ar
    11     2    17    1
    12    17    18   ar
    13    18    19   ar
    14    19    20   ar
    15    20    21    1
    16    20    22   ar
    17    22    23    1
    18    22    24   ar
    19     2     3   ar
    20     3     4   ar
    21     4     5   ar
    22     5    25    1
    23    25    26    1
    24    26    27    1
    25    12    13   ar
    26    13    14   ar
    27    14     6   ar
    28    14     9   ar
    29     5     1   ar
    30    24    17   ar
    31    27    28    1
@<TRIPOS>MOLECULE
*****
 28 31 0 0 0
SMALL
GASTEIGER

@<TRIPOS>ATOM
      1 C          61.4384   87.4586   10.0619 C.ar    1  UNL1        0.0985
      2 C          61.6668   88.8616   10.5410 C.ar    1  UNL1        0.1003
      3 N          60.7360   89.7657    9.7885 N.ar    1  UNL1       -0.2239
      4 C          59.9323   88.9214    8.8443 C.ar    1  UNL1        0.1786
      5 N          60.3665   87.4956    9.0133 N.ar    1  UNL1       -0.3052
      6 C          63.0582   84.0897   13.8633 C.ar    1  UNL1        0.1713
      7 C          63.8792   82.8411   13.7331 C.ar    1  UNL1        0.1302
      8 N          64.2086   82.6521   12.2820 N.ar    1  UNL1       -0.2227
      9 C          63.5912   83.7840   11.5153 C.ar    1  UNL1        0.1647
     10 C          63.5846   84.1204   10.0536 C.ar    1  UNL1        0.0405
     11 C          62.8670   85.3452    9.5691 C.ar    1  UNL1        0.0255
     12 C          62.1560   86.2337   10.5464 C.ar    1  UNL1        0.1187
     13 N          62.1626   85.8973   12.0082 N.ar    1  UNL1       -0.1616
     14 N          62.8802   84.6724   12.4926 N.ar    1  UNL1       -0.2010
     15 N          61.9643   85.2226   16.4167 N.1     1  UNL1       -0.1892
     16 C          62.5112   84.6561   15.1400 C.1     1  UNL1        0.1215
     17 C          62.6528   89.2860   11.5887 C.ar    1  UNL1        0.0202
     18 C          63.2051   90.6805   11.5778 C.ar    1  UNL1        0.0039
     19 C          64.1912   91.1050   12.6254 C.ar    1  UNL1        0.0306
     20 C          64.6249   90.1348   13.6840 C.ar    1  UNL1        0.1506
     21 F          65.6109   90.5592   14.7317 F       1  UNL1       -0.2033
     22 C          64.0726   88.7402   13.6950 C.ar    1  UNL1        0.0851
     23 CL         64.5063   87.7701   14.7536 Cl      1  UNL1       -0.0799
     24 C          63.0865   88.3159   12.6473 C.ar    1  UNL1        0.0152
     25 C          59.8239   86.3142    8.2651 C.3     1  UNL1        0.1393
     26 C          60.3767   85.9625    6.9158 C.3     1  UNL1        0.1616
     27 O          60.7602   84.5453    6.6084 O.3     1  UNL1       -0.3799
     28 H          61.5116   84.2858    7.1643 H       1  UNL1        0.2105
@<TRIPOS>BOND
     1    15    16    3
     2    16     6    1
     3     6     7   ar
     4     7     8   ar
     5     8     9   ar
     6     9    10   ar
     7    10    11   ar
     8    11    12   ar
     9    12     1    1
    10     1     2   ar
    11     2    17    1
    12    17    18   ar
    13    18    19   ar
    14    19    20   ar
    15    20    21    1
    16    20    22   ar
    17    22    23    1
    18    22    24   ar
    19     2     3   ar
    20     3     4   ar
    21     4     5   ar
    22     5    25    1
    23    25    26    1
    24    26    27    1
    25    12    13   ar
    26    13    14   ar
    27    14     6   ar
    28    14     9   ar
    29     5     1   ar
    30    24    17   ar
    31    27    28    1
@<TRIPOS>MOLECULE
*****
 28 31 0 0 0
SMALL
GASTEIGER

@<TRIPOS>ATOM
      1 C          63.2719   85.4937   14.0629 C.ar    1  UNL1        0.0985
      2 C          62.9708   84.4205   13.0591 C.ar    1  UNL1        0.1003
      3 N          62.7687   83.1337   13.8028 N.ar    1  UNL1       -0.2239
      4 C          62.9449   83.4116   15.2663 C.ar    1  UNL1        0.1786
      5 N          63.2559   84.8701   15.4270 N.ar    1  UNL1       -0.3052
      6 C          62.6639   89.9346   11.1762 C.ar    1  UNL1        0.1713
      7 C          63.2801   91.2869   11.3802 C.ar    1  UNL1        0.1302
      8 N          64.1561   91.2183   12.5959 N.ar    1  UNL1       -0.2227
      9 C          64.0813   89.8237   13.1433 C.ar    1  UNL1        0.1647
     10 C          64.7337   89.1738   14.3272 C.ar    1  UNL1        0.0405
     11 C          64.4640   87.7305   14.6338 C.ar    1  UNL1        0.0255
     12 C          63.5417   86.9371   13.7563 C.ar    1  UNL1        0.1187
     13 N          62.8892   87.5870   12.5723 N.ar    1  UNL1       -0.1616
     14 N          63.1590   89.0303   12.2658 N.ar    1  UNL1       -0.2010
     15 N          60.7731   89.1723    8.9753 N.1     1  UNL1       -0.1892
     16 C          61.7185   89.5535   10.0758 C.1     1  UNL1        0.1215
     17 C          62.8865   84.6023   11.5725 C.ar    1  UNL1        0.0202
     18 C          63.9496   84.0261   10.6850 C.ar    1  UNL1        0.0039
     19 C          63.8654   84.2079    9.1984 C.ar    1  UNL1        0.0306
     20 C          62.7179   84.9658    8.5993 C.ar    1  UNL1        0.1506
     21 F          62.6337   85.1475    7.1128 F       1  UNL1       -0.2033
     22 C          61.6547   85.5420    9.4869 C.ar    1  UNL1        0.0851
     23 CL         60.5072   86.2998    8.8878 Cl      1  UNL1       -0.0799
     24 C          61.7390   85.3602   10.9734 C.ar    1  UNL1        0.0152
     25 C          63.5069   85.5804   16.7241 C.3     1  UNL1        0.1393
     26 C          62.3825   86.2854   17.4231 C.3     1  UNL1        0.1616
     27 O          60.9868   86.1920   16.8816 O.3     1  UNL1       -0.3799
     28 H          60.9442   86.6340   16.0192 H       1  UNL1        0.2105
@<TRIPOS>BOND
     1    15    16    3
     2    16     6    1
     3     6     7   ar
     4     7     8   ar
     5     8     9   ar
     6     9    10   ar
     7    10    11   ar
     8    11    12   ar
     9    12     1    1
    10     1     2   ar
    11     2    17    1
    12    17    18   ar
    13    18    19   ar
    14    19    20   ar
    15    20    21    1
    16    20    22   ar
    17    22    23    1
    18    22    24   ar
    19     2     3   ar
    20     3     4   ar
    21     4     5   ar
    22     5    25    1
    23    25    26    1
    24    26    27    1
    25    12    13   ar
    26    13    14   ar
    27    14     6   ar
    28    14     9   ar
    29     5     1   ar
    30    24    17   ar
    31    27    28    1
@<TRIPOS>MOLECULE
*****
 28 31 0 0 0
SMALL
GASTEIGER

@<TRIPOS>ATOM
      1 C          63.0560   83.4743   12.5120 C.ar    1  UNL1        0.0985
      2 C          63.4435   83.7248   13.9393 C.ar    1  UNL1        0.1003
      3 N          63.7532   82.4017   14.5746 N.ar    1  UNL1       -0.2239
      4 C          63.5570   81.3335   13.5399 C.ar    1  UNL1        0.1786
      5 N          63.1261   81.9964   12.2652 N.ar    1  UNL1       -0.3052
      6 C          60.4148   87.8443   10.9787 C.ar    1  UNL1        0.1713
      7 C          60.4149   88.5299    9.6446 C.ar    1  UNL1        0.1302
      8 N          61.3254   87.7649    8.7304 N.ar    1  UNL1       -0.2227
      9 C          61.8881   86.6065    9.4996 C.ar    1  UNL1        0.1647
     10 C          62.8402   85.5135    9.1142 C.ar    1  UNL1        0.0405
     11 C          63.2295   84.4694   10.1183 C.ar    1  UNL1        0.0255
     12 C          62.6667   84.5184   11.5078 C.ar    1  UNL1        0.1187
     13 N          61.7145   85.6115   11.8932 N.ar    1  UNL1       -0.1616
     14 N          61.3253   86.6556   10.8891 N.ar    1  UNL1       -0.2010
     15 N          58.8655   88.7000   13.4011 N.1     1  UNL1       -0.1892
     16 C          59.6401   88.2722   12.1899 C.1     1  UNL1        0.1215
     17 C          63.5098   85.0633   14.6130 C.ar    1  UNL1        0.0202
     18 C          64.0650   86.2467   13.8772 C.ar    1  UNL1        0.0039
     19 C          64.1313   87.5852   14.5509 C.ar    1  UNL1        0.0306
     20 C          63.6424   87.7404   15.9605 C.ar    1  UNL1        0.1506
     21 F          63.7086   89.0790   16.6342 F       1  UNL1       -0.2033
     22 C          63.0871   86.5570   16.6964 C.ar    1  UNL1        0.0851
     23 CL         62.5982   86.7122   18.1058 Cl      1  UNL1       -0.0799
     24 C          63.0209   85.2185   16.0225 C.ar    1  UNL1        0.0152
     25 C          62.8192   81.3031   10.9709 C.3     1  UNL1        0.1393
     26 C          62.8466   79.8052   10.8975 C.3     1  UNL1        0.1616
     27 O          62.7855   79.1182    9.5655 O.3     1  UNL1       -0.3799
     28 H          61.9226   79.2850    9.1550 H       1  UNL1        0.2105
@<TRIPOS>BOND
     1    15    16    3
     2    16     6    1
     3     6     7   ar
     4     7     8   ar
     5     8     9   ar
     6     9    10   ar
     7    10    11   ar
     8    11    12   ar
     9    12     1    1
    10     1     2   ar
    11     2    17    1
    12    17    18   ar
    13    18    19   ar
    14    19    20   ar
    15    20    21    1
    16    20    22   ar
    17    22    23    1
    18    22    24   ar
    19     2     3   ar
    20     3     4   ar
    21     4     5   ar
    22     5    25    1
    23    25    26    1
    24    26    27    1
    25    12    13   ar
    26    13    14   ar
    27    14     6   ar
    28    14     9   ar
    29     5     1   ar
    30    24    17   ar
    31    27    28    1
@<TRIPOS>MOLECULE
*****
 28 31 0 0 0
SMALL
GASTEIGER

@<TRIPOS>ATOM
      1 C          63.4782   84.8732   12.5629 C.ar    1  UNL1        0.0985
      2 C          63.9963   85.0079   13.9641 C.ar    1  UNL1        0.1003
      3 N          64.7225   83.7427   14.3134 N.ar    1  UNL1       -0.2239
      4 C          64.6532   82.8261   13.1280 C.ar    1  UNL1        0.1786
      5 N          63.8842   83.5248   12.0462 N.ar    1  UNL1       -0.3052
      6 C          62.2126   89.8959   11.3003 C.ar    1  UNL1        0.1713
      7 C          61.1846   90.3966   10.3294 C.ar    1  UNL1        0.1302
      8 N          60.5093   89.2066    9.7148 N.ar    1  UNL1       -0.2227
      9 C          61.1198   87.9705   10.3058 C.ar    1  UNL1        0.1647
     10 C          60.8532   86.5121   10.0782 C.ar    1  UNL1        0.0405
     11 C          61.6393   85.4797   10.8306 C.ar    1  UNL1        0.0255
     12 C          62.6921   85.9057   11.8105 C.ar    1  UNL1        0.1187
     13 N          62.9587   87.3641   12.0381 N.ar    1  UNL1       -0.1616
     14 N          62.1726   88.3965   11.2857 N.ar    1  UNL1       -0.2010
     15 N          64.0296   91.5951   12.9770 N.1     1  UNL1       -0.1892
     16 C          63.1211   90.7455   12.1386 C.1     1  UNL1        0.1215
     17 C          63.8193   86.1986   14.8590 C.ar    1  UNL1        0.0202
     18 C          64.1948   87.5662   14.3707 C.ar    1  UNL1        0.0039
     19 C          64.0178   88.7570   15.2655 C.ar    1  UNL1        0.0306
     20 C          63.4652   88.5801   16.6488 C.ar    1  UNL1        0.1506
     21 F          63.2882   89.7709   17.5436 F       1  UNL1       -0.2033
     22 C          63.0897   87.2124   17.1372 C.ar    1  UNL1        0.0851
     23 CL         62.5371   87.0355   18.5204 Cl      1  UNL1       -0.0799
     24 C          63.2667   86.0218   16.2423 C.ar    1  UNL1        0.0152
     25 C          63.5754   82.9721   10.6864 C.3     1  UNL1        0.1393
     26 C          63.5335   81.4882   10.4716 C.3     1  UNL1        0.1616
     27 O          62.7815   80.6126   11.4295 O.3     1  UNL1       -0.3799
     28 H          63.2125   80.6387   12.2981 H       1  UNL1        0.2105
@<TRIPOS>BOND
     1    15    16    3
     2    16     6    1
     3     6     7   ar
     4     7     8   ar
     5     8     9   ar
     6     9    10   ar
     7    10    11   ar
     8    11    12   ar
     9    12     1    1
    10     1     2   ar
    11     2    17    1
    12    17    18   ar
    13    18    19   ar
    14    19    20   ar
    15    20    21    1
    16    20    22   ar
    17    22    23    1
    18    22    24   ar
    19     2     3   ar
    20     3     4   ar
    21     4     5   ar
    22     5    25    1
    23    25    26    1
    24    26    27    1
    25    12    13   ar
    26    13    14   ar
    27    14     6   ar
    28    14     9   ar
    29     5     1   ar
    30    24    17   ar
    31    27    28    1
