@<TRIPOS>MOLECULE
*****
 34 36 0 0 0
SMALL
GASTEIGER

@<TRIPOS>ATOM
      1 C          63.7197   86.4210   15.3244 C.ar    1  UNL1        0.0528
      2 C          64.3558   87.5856   14.6252 C.ar    1  UNL1        0.0167
      3 C          64.2219   88.9667   15.1949 C.ar    1  UNL1        0.0506
      4 C          63.4519   89.1832   16.4638 C.ar    1  UNL1        0.0170
      5 C          62.8157   88.0186   17.1630 C.ar    1  UNL1        0.0307
      6 C          62.9496   86.6375   16.5933 C.ar    1  UNL1        0.1402
      7 F          62.3134   85.4728   17.2925 F       1  UNL1       -0.2044
      8 C          64.1122   84.7501   16.2036 C.3     1  UNL1        0.0607
      9 C          63.8535   85.0398   14.7547 C.3     1  UNL1        0.2223
     10 C          63.5484   85.8091   13.5037 C.3     1  UNL1        0.1959
     11 O          63.4670   85.0966   12.1862 O.3     1  UNL1       -0.3357
     12 C          63.6907   83.6149   12.1197 C.3     1  UNL1        0.2740
     13 C          63.8246   82.2337   11.5501 C.3     1  UNL1        0.0512
     14 C          63.9958   82.8456   13.3707 C.2     1  UNL1        0.3217
     15 N          64.2195   81.3638   13.3043 N.pl3   1  UNL1       -0.2480
     16 N          64.0772   83.5580   14.6882 N.2     1  UNL1       -0.0692
     17 H          64.1661   80.8962   12.4396 H       1  UNL1        0.2882
     18 H          64.4198   80.8589   14.1254 H       1  UNL1        0.2882
     19 C          63.4321   83.9045   10.6708 C.3     1  UNL1        0.4305
     20 F          63.1734   84.1941    9.2219 F       1  UNL1       -0.1670
     21 F          62.1046   84.5050   11.0278 F       1  UNL1       -0.1670
     22 F          64.7594   83.3041   10.3139 F       1  UNL1       -0.1670
     23 N          64.8581   90.1314   14.4956 N.am    1  UNL1       -0.2779
     24 C          64.2088   90.7215   13.2790 C.2     1  UNL1        0.2855
     25 O          62.9234   90.1470   12.7616 O.2     1  UNL1       -0.2664
     26 H          65.7017   90.5084   14.8352 H       1  UNL1        0.1553
     27 C          64.8449   91.8862   12.5798 C.ar    1  UNL1        0.2173
     28 N          65.6386   92.8891   13.3634 N.ar    1  UNL1       -0.2205
     29 C          66.2748   94.0538   12.6641 C.ar    1  UNL1        0.1125
     30 C          66.1171   94.2155   11.1813 C.ar    1  UNL1        0.1067
     31 C          65.3234   93.2125   10.3976 C.ar    1  UNL1        0.1125
     32 N          64.6873   92.0479   11.0968 N.ar    1  UNL1       -0.2205
     33 C          66.7532   95.3801   10.4820 C.1     1  UNL1        0.1036
     34 N          67.3893   96.5448    9.7828 N.1     1  UNL1       -0.1907
@<TRIPOS>BOND
     1     9     8    1
     2     9     1    1
     3     1     2   ar
     4     2     3   ar
     5     3    23    1
     6    23    24   am
     7    24    25    2
     8    24    27    1
     9    27    28   ar
    10    28    29   ar
    11    29    30   ar
    12    30    33    1
    13    33    34    3
    14    30    31   ar
    15    31    32   ar
    16     3     4   ar
    17     4     5   ar
    18     5     6   ar
    19     6     7    1
    20     9    10    1
    21    10    11    1
    22    11    12    1
    23    12    13    1
    24    12    19    1
    25    19    20    1
    26    19    21    1
    27    19    22    1
    28    12    14    1
    29    14    15    1
    30    14    16    2
    31    16     9    1
    32     6     1   ar
    33    32    27   ar
    34    23    26    1
    35    15    17    1
    36    15    18    1
@<TRIPOS>MOLECULE
*****
 34 36 0 0 0
SMALL
GASTEIGER

@<TRIPOS>ATOM
      1 C          63.9459   89.2144   14.7311 C.ar    1  UNL1        0.0528
      2 C          63.9505   87.8273   14.1602 C.ar    1  UNL1        0.0167
      3 C          63.5750   86.6597   15.0237 C.ar    1  UNL1        0.0506
      4 C          63.1950   86.8791   16.4580 C.ar    1  UNL1        0.0170
      5 C          63.1904   88.2662   17.0289 C.ar    1  UNL1        0.0307
      6 C          63.5658   89.4338   16.1655 C.ar    1  UNL1        0.1402
      7 F          63.5612   90.8210   16.7364 F       1  UNL1       -0.2044
      8 C          63.0482   89.9601   13.1959 C.3     1  UNL1        0.0607
      9 C          64.3213   90.3821   13.8676 C.3     1  UNL1        0.2223
     10 C          65.4640   90.3986   14.8392 C.3     1  UNL1        0.1959
     11 O          66.5400   91.4361   14.7140 O.3     1  UNL1       -0.3357
     12 C          66.4733   92.4573   13.6173 C.3     1  UNL1        0.2740
     13 C          66.8486   93.6250   12.7538 C.3     1  UNL1        0.0512
     14 C          65.3306   92.4409   12.6457 C.2     1  UNL1        0.3217
     15 N          65.2639   93.4620   11.5490 N.pl3   1  UNL1       -0.2480
     16 N          64.2546   91.4033   12.7709 N.2     1  UNL1       -0.0692
     17 H          65.9701   94.1430   11.4668 H       1  UNL1        0.2882
     18 H          64.5138   93.4512   10.9113 H       1  UNL1        0.2882
     19 C          67.7464   92.8793   14.2890 C.3     1  UNL1        0.4305
     20 F          69.0195   93.3013   14.9607 F       1  UNL1       -0.1670
     21 F          68.4823   91.7768   13.5868 F       1  UNL1       -0.1670
     22 F          67.0105   93.9817   14.9911 F       1  UNL1       -0.1670
     23 N          63.5796   85.2725   14.4528 N.am    1  UNL1       -0.2779
     24 C          62.9239   85.0034   13.1308 C.2     1  UNL1        0.2855
     25 O          62.2637   86.1215   12.3797 O.2     1  UNL1       -0.2664
     26 H          64.0130   84.5388   14.9457 H       1  UNL1        0.1553
     27 C          62.9285   83.6164   12.5599 C.ar    1  UNL1        0.2173
     28 N          62.4136   82.4678   13.3757 N.ar    1  UNL1       -0.2205
     29 C          62.4182   81.0807   12.8048 C.ar    1  UNL1        0.1125
     30 C          62.9377   80.8422   11.4180 C.ar    1  UNL1        0.1067
     31 C          63.4526   81.9907   10.6021 C.ar    1  UNL1        0.1125
     32 N          63.4480   83.3778   11.1730 N.ar    1  UNL1       -0.2205
     33 C          62.9422   79.4551   10.8471 C.1     1  UNL1        0.1036
     34 N          62.9468   78.0680   10.2761 N.1     1  UNL1       -0.1907
@<TRIPOS>BOND
     1     9     8    1
     2     9     1    1
     3     1     2   ar
     4     2     3   ar
     5     3    23    1
     6    23    24   am
     7    24    25    2
     8    24    27    1
     9    27    28   ar
    10    28    29   ar
    11    29    30   ar
    12    30    33    1
    13    33    34    3
    14    30    31   ar
    15    31    32   ar
    16     3     4   ar
    17     4     5   ar
    18     5     6   ar
    19     6     7    1
    20     9    10    1
    21    10    11    1
    22    11    12    1
    23    12    13    1
    24    12    19    1
    25    19    20    1
    26    19    21    1
    27    19    22    1
    28    12    14    1
    29    14    15    1
    30    14    16    2
    31    16     9    1
    32     6     1   ar
    33    32    27   ar
    34    23    26    1
    35    15    17    1
    36    15    18    1
@<TRIPOS>MOLECULE
*****
 34 36 0 0 0
SMALL
GASTEIGER

@<TRIPOS>ATOM
      1 C          63.9706   86.2170   15.2385 C.ar    1  UNL1        0.0528
      2 C          64.4926   87.4968   14.6557 C.ar    1  UNL1        0.0167
      3 C          64.1655   88.8067   15.3092 C.ar    1  UNL1        0.0506
      4 C          63.3163   88.8369   16.5453 C.ar    1  UNL1        0.0170
      5 C          62.7943   87.5571   17.1281 C.ar    1  UNL1        0.0307
      6 C          63.1215   86.2472   16.4746 C.ar    1  UNL1        0.1402
      7 F          62.5995   84.9673   17.0574 F       1  UNL1       -0.2044
      8 C          65.6522   85.5513   14.5695 C.3     1  UNL1        0.0607
      9 C          64.2977   84.9070   14.5850 C.3     1  UNL1        0.2223
     10 C          62.8296   84.7177   14.8275 C.3     1  UNL1        0.1959
     11 O          62.1590   83.4422   14.4111 O.3     1  UNL1       -0.3357
     12 C          62.9566   82.3559   13.7523 C.3     1  UNL1        0.2740
     13 C          63.2837   81.0460   13.0989 C.3     1  UNL1        0.0512
     14 C          64.4247   82.5452   13.5099 C.2     1  UNL1        0.3217
     15 N          65.2223   81.4590   12.8511 N.pl3   1  UNL1       -0.2480
     16 N          65.0953   83.8207   13.9262 N.2     1  UNL1       -0.0692
     17 H          64.7821   80.6218   12.5778 H       1  UNL1        0.2882
     18 H          66.1858   81.5832   12.6919 H       1  UNL1        0.2882
     19 C          61.6021   81.7117   13.7678 C.3     1  UNL1        0.4305
     20 F          60.2475   81.0674   13.7834 F       1  UNL1       -0.1670
     21 F          61.7747   81.3141   12.3318 F       1  UNL1       -0.1670
     22 F          61.4295   82.1093   15.2038 F       1  UNL1       -0.1670
     23 N          64.6874   90.0866   14.7264 N.am    1  UNL1       -0.2779
     24 C          64.3814   90.4417   13.3016 C.2     1  UNL1        0.2855
     25 O          63.5533   89.5169   12.4594 O.2     1  UNL1       -0.2664
     26 H          65.2309   90.6936   15.2792 H       1  UNL1        0.1553
     27 C          64.9033   91.7215   12.7188 C.ar    1  UNL1        0.2173
     28 N          64.6725   92.0351   11.2703 N.ar    1  UNL1       -0.2205
     29 C          65.1944   93.3150   10.6875 C.ar    1  UNL1        0.1125
     30 C          65.9473   94.2812   11.5533 C.ar    1  UNL1        0.1067
     31 C          66.1781   93.9676   13.0019 C.ar    1  UNL1        0.1125
     32 N          65.6562   92.6878   13.5847 N.ar    1  UNL1       -0.2205
     33 C          66.4692   95.5610   10.9706 C.1     1  UNL1        0.1036
     34 N          66.9912   96.8409   10.3879 N.1     1  UNL1       -0.1907
@<TRIPOS>BOND
     1     9     8    1
     2     9     1    1
     3     1     2   ar
     4     2     3   ar
     5     3    23    1
     6    23    24   am
     7    24    25    2
     8    24    27    1
     9    27    28   ar
    10    28    29   ar
    11    29    30   ar
    12    30    33    1
    13    33    34    3
    14    30    31   ar
    15    31    32   ar
    16     3     4   ar
    17     4     5   ar
    18     5     6   ar
    19     6     7    1
    20     9    10    1
    21    10    11    1
    22    11    12    1
    23    12    13    1
    24    12    19    1
    25    19    20    1
    26    19    21    1
    27    19    22    1
    28    12    14    1
    29    14    15    1
    30    14    16    2
    31    16     9    1
    32     6     1   ar
    33    32    27   ar
    34    23    26    1
    35    15    17    1
    36    15    18    1
@<TRIPOS>MOLECULE
*****
 34 36 0 0 0
SMALL
GASTEIGER

@<TRIPOS>ATOM
      1 C          62.0016   87.1336   10.7882 C.ar    1  UNL1        0.0528
      2 C          62.9793   88.0903   11.4037 C.ar    1  UNL1        0.0167
      3 C          62.6430   89.5490   11.4981 C.ar    1  UNL1        0.0506
      4 C          61.3291   90.0511   10.9771 C.ar    1  UNL1        0.0170
      5 C          60.3514   89.0944   10.3616 C.ar    1  UNL1        0.0307
      6 C          60.6877   87.6357   10.2671 C.ar    1  UNL1        0.1402
      7 F          59.7100   86.6789    9.6516 F       1  UNL1       -0.2044
      8 C          62.3994   86.0508    9.2428 C.3     1  UNL1        0.0607
      9 C          62.3378   85.6748   10.6937 C.3     1  UNL1        0.2223
     10 C          62.1595   85.8054   12.1773 C.3     1  UNL1        0.1959
     11 O          62.3387   84.6078   13.0625 O.3     1  UNL1       -0.3357
     12 C          62.6963   83.2796   12.4641 C.3     1  UNL1        0.2740
     13 C          63.0326   81.8209   12.3696 C.3     1  UNL1        0.0512
     14 C          62.8747   83.1490   10.9806 C.2     1  UNL1        0.3217
     15 N          63.2323   81.8208   10.3822 N.pl3   1  UNL1       -0.2480
     16 N          62.6955   84.3466   10.0953 N.2     1  UNL1       -0.0692
     17 H          63.3500   81.0348   10.9632 H       1  UNL1        0.2882
     18 H          63.3494   81.7351    9.4084 H       1  UNL1        0.2882
     19 C          62.6347   82.9036   13.9150 C.3     1  UNL1        0.4305
     20 F          62.5731   82.5276   15.3658 F       1  UNL1       -0.1670
     21 F          61.5450   81.9179   13.6132 F       1  UNL1       -0.1670
     22 F          63.7244   83.8893   14.2166 F       1  UNL1       -0.1670
     23 N          63.6207   90.5057   12.1137 N.am    1  UNL1       -0.2779
     24 C          64.2706   90.1743   13.4243 C.2     1  UNL1        0.2855
     25 O          63.9428   88.8861   14.1194 O.2     1  UNL1       -0.2664
     26 H          63.8359   91.3512   11.6574 H       1  UNL1        0.1553
     27 C          65.2483   91.1309   14.0398 C.ar    1  UNL1        0.2173
     28 N          65.0122   91.6572   15.4245 N.ar    1  UNL1       -0.2205
     29 C          65.9900   92.6139   16.0400 C.ar    1  UNL1        0.1125
     30 C          67.2037   93.0443   15.2709 C.ar    1  UNL1        0.1067
     31 C          67.4397   92.5181   13.8862 C.ar    1  UNL1        0.1125
     32 N          66.4621   91.5614   13.2707 N.ar    1  UNL1       -0.2205
     33 C          68.1813   94.0010   15.8864 C.1     1  UNL1        0.1036
     34 N          69.1590   94.9577   16.5020 N.1     1  UNL1       -0.1907
@<TRIPOS>BOND
     1     9     8    1
     2     9     1    1
     3     1     2   ar
     4     2     3   ar
     5     3    23    1
     6    23    24   am
     7    24    25    2
     8    24    27    1
     9    27    28   ar
    10    28    29   ar
    11    29    30   ar
    12    30    33    1
    13    33    34    3
    14    30    31   ar
    15    31    32   ar
    16     3     4   ar
    17     4     5   ar
    18     5     6   ar
    19     6     7    1
    20     9    10    1
    21    10    11    1
    22    11    12    1
    23    12    13    1
    24    12    19    1
    25    19    20    1
    26    19    21    1
    27    19    22    1
    28    12    14    1
    29    14    15    1
    30    14    16    2
    31    16     9    1
    32     6     1   ar
    33    32    27   ar
    34    23    26    1
    35    15    17    1
    36    15    18    1
@<TRIPOS>MOLECULE
*****
 34 36 0 0 0
SMALL
GASTEIGER

@<TRIPOS>ATOM
      1 C          64.0097   88.8439   14.9556 C.ar    1  UNL1        0.0528
      2 C          64.0207   87.4653   14.3646 C.ar    1  UNL1        0.0167
      3 C          63.5457   86.2973   15.1770 C.ar    1  UNL1        0.0506
      4 C          63.0597   86.5078   16.5804 C.ar    1  UNL1        0.0170
      5 C          63.0487   87.8864   17.1714 C.ar    1  UNL1        0.0307
      6 C          63.5237   89.0545   16.3590 C.ar    1  UNL1        0.1402
      7 F          63.5128   90.4331   16.9500 F       1  UNL1       -0.2044
      8 C          65.3091   90.2036   15.3818 C.3     1  UNL1        0.0607
      9 C          64.4848   90.0120   14.1432 C.3     1  UNL1        0.2223
     10 C          63.4956   89.4148   13.1869 C.3     1  UNL1        0.1959
     11 O          63.2676   90.0522   11.8483 O.3     1  UNL1       -0.3357
     12 C          64.0289   91.2868   11.4661 C.3     1  UNL1        0.2740
     13 C          64.5040   92.4549   10.6538 C.3     1  UNL1        0.0512
     14 C          65.0182   91.8841   12.4225 C.2     1  UNL1        0.3217
     15 N          65.7796   93.1187   12.0403 N.pl3   1  UNL1       -0.2480
     16 N          65.2462   91.2467   13.7610 N.2     1  UNL1       -0.0692
     17 H          65.6299   93.5370   11.1617 H       1  UNL1        0.2882
     18 H          66.4289   93.5107   12.6680 H       1  UNL1        0.2882
     19 C          63.2046   91.0953   10.2276 C.3     1  UNL1        0.4305
     20 F          62.3803   90.9037    8.9891 F       1  UNL1       -0.1670
     21 F          62.8540   89.7073   10.6757 F       1  UNL1       -0.1670
     22 F          63.5552   92.4832    9.7797 F       1  UNL1       -0.1670
     23 N          63.5566   84.9186   14.5860 N.am    1  UNL1       -0.2779
     24 C          62.8539   84.6537   13.2875 C.2     1  UNL1        0.2855
     25 O          62.1403   85.7674   12.5800 O.2     1  UNL1       -0.2664
     26 H          64.0250   84.1877   15.0503 H       1  UNL1        0.1553
     27 C          62.8649   83.2751   12.6965 C.ar    1  UNL1        0.2173
     28 N          62.4008   82.1054   13.5129 N.ar    1  UNL1       -0.2205
     29 C          62.4118   80.7267   12.9218 C.ar    1  UNL1        0.1125
     30 C          62.8867   80.5178   11.5144 C.ar    1  UNL1        0.1067
     31 C          63.3508   81.6875   10.6981 C.ar    1  UNL1        0.1125
     32 N          63.3399   83.0661   11.2891 N.ar    1  UNL1       -0.2205
     33 C          62.8976   79.1393   10.9234 C.1     1  UNL1        0.1036
     34 N          62.9085   77.7606   10.3323 N.1     1  UNL1       -0.1907
@<TRIPOS>BOND
     1     9     8    1
     2     9     1    1
     3     1     2   ar
     4     2     3   ar
     5     3    23    1
     6    23    24   am
     7    24    25    2
     8    24    27    1
     9    27    28   ar
    10    28    29   ar
    11    29    30   ar
    12    30    33    1
    13    33    34    3
    14    30    31   ar
    15    31    32   ar
    16     3     4   ar
    17     4     5   ar
    18     5     6   ar
    19     6     7    1
    20     9    10    1
    21    10    11    1
    22    11    12    1
    23    12    13    1
    24    12    19    1
    25    19    20    1
    26    19    21    1
    27    19    22    1
    28    12    14    1
    29    14    15    1
    30    14    16    2
    31    16     9    1
    32     6     1   ar
    33    32    27   ar
    34    23    26    1
    35    15    17    1
    36    15    18    1
@<TRIPOS>MOLECULE
*****
 34 36 0 0 0
SMALL
GASTEIGER

@<TRIPOS>ATOM
      1 C          65.9259   91.7813   13.6736 C.ar    1  UNL1        0.0528
      2 C          65.2156   90.4639   13.5735 C.ar    1  UNL1        0.0167
      3 C          64.3213   90.0075   14.6879 C.ar    1  UNL1        0.0506
      4 C          64.1373   90.8684   15.9023 C.ar    1  UNL1        0.0170
      5 C          64.8476   92.1858   16.0025 C.ar    1  UNL1        0.0307
      6 C          65.7419   92.6422   14.8881 C.ar    1  UNL1        0.1402
      7 F          66.4523   93.9595   14.9882 F       1  UNL1       -0.2044
      8 C          67.6979   91.1961   13.1876 C.3     1  UNL1        0.0607
      9 C          66.8203   92.2377   12.5592 C.3     1  UNL1        0.2223
     10 C          65.6321   93.1208   12.3179 C.3     1  UNL1        0.1959
     11 O          65.6430   94.0985   11.1804 O.3     1  UNL1       -0.3357
     12 C          66.8422   94.1932   10.2843 C.3     1  UNL1        0.2740
     13 C          67.7365   94.6497    9.1700 C.3     1  UNL1        0.0512
     14 C          68.0304   93.3102   10.5257 C.2     1  UNL1        0.3217
     15 N          69.2296   93.4049    9.6295 N.pl3   1  UNL1       -0.2480
     16 N          68.0195   92.3324   11.6631 N.2     1  UNL1       -0.0692
     17 H          69.2368   94.0466    8.8830 H       1  UNL1        0.2882
     18 H          70.0095   92.8253    9.7879 H       1  UNL1        0.2882
     19 C          65.9645   95.2349    9.6559 C.3     1  UNL1        0.4305
     20 F          65.0868   96.2765    9.0276 F       1  UNL1       -0.1670
     21 F          65.3886   95.5616   11.0019 F       1  UNL1       -0.1670
     22 F          66.5404   94.9081    8.3100 F       1  UNL1       -0.1670
     23 N          63.6109   88.6901   14.5878 N.am    1  UNL1       -0.2779
     24 C          64.3748   87.4110   14.7618 C.2     1  UNL1        0.2855
     25 O          65.8491   87.4493   15.0360 O.2     1  UNL1       -0.2664
     26 H          62.6433   88.6651   14.4078 H       1  UNL1        0.1553
     27 C          63.6645   86.0937   14.6618 C.ar    1  UNL1        0.2173
     28 N          63.4479   85.4584   13.3203 N.ar    1  UNL1       -0.2205
     29 C          62.7376   84.1410   13.2203 C.ar    1  UNL1        0.1125
     30 C          62.2439   83.4590   14.4616 C.ar    1  UNL1        0.1067
     31 C          62.4605   84.0943   15.8031 C.ar    1  UNL1        0.1125
     32 N          63.1707   85.4116   15.9032 N.ar    1  UNL1       -0.2205
     33 C          61.5336   82.1416   14.3616 C.1     1  UNL1        0.1036
     34 N          60.8232   80.8242   14.2614 N.1     1  UNL1       -0.1907
@<TRIPOS>BOND
     1     9     8    1
     2     9     1    1
     3     1     2   ar
     4     2     3   ar
     5     3    23    1
     6    23    24   am
     7    24    25    2
     8    24    27    1
     9    27    28   ar
    10    28    29   ar
    11    29    30   ar
    12    30    33    1
    13    33    34    3
    14    30    31   ar
    15    31    32   ar
    16     3     4   ar
    17     4     5   ar
    18     5     6   ar
    19     6     7    1
    20     9    10    1
    21    10    11    1
    22    11    12    1
    23    12    13    1
    24    12    19    1
    25    19    20    1
    26    19    21    1
    27    19    22    1
    28    12    14    1
    29    14    15    1
    30    14    16    2
    31    16     9    1
    32     6     1   ar
    33    32    27   ar
    34    23    26    1
    35    15    17    1
    36    15    18    1
