@<TRIPOS>MOLECULE
*****
 32 35 0 0 0
SMALL
GASTEIGER

@<TRIPOS>ATOM
      1 C          64.7710   88.0449   14.6960 C.3     1  UNL1        0.0312
      2 C          64.0126   88.6926   13.5754 C.ar    1  UNL1       -0.0175
      3 C          64.0678   90.1806   13.3943 C.ar    1  UNL1       -0.0038
      4 C          63.3095   90.8283   12.2738 C.ar    1  UNL1       -0.0003
      5 C          62.4960   89.9880   11.3345 C.ar    1  UNL1        0.0002
      6 C          61.7378   90.6357   10.2140 C.ar    1  UNL1        0.0005
      7 C          60.9244   89.7954    9.2748 C.ar    1  UNL1        0.0067
      8 C          60.8693   88.3074    9.4559 C.ar    1  UNL1        0.0346
      9 BR         60.0558   87.4671    8.5166 Br      1  UNL1       -0.0490
     10 C          61.6275   87.6597   10.5764 C.ar    1  UNL1        0.0068
     11 C          62.4409   88.5000   11.5156 C.ar    1  UNL1        0.0046
     12 C          63.1993   87.8523   12.6362 C.ar    1  UNL1        0.0497
     13 C          64.8812   91.0209   14.3336 C.ar    1  UNL1       -0.0003
     14 C          64.3273   91.3949   15.6764 C.ar    1  UNL1       -0.0000
     15 C          65.1407   92.2351   16.6157 C.ar    1  UNL1       -0.0000
     16 C          66.5081   92.7014   16.2121 C.ar    1  UNL1       -0.0000
     17 C          67.0620   92.3274   14.8693 C.ar    1  UNL1       -0.0000
     18 C          66.2486   91.4871   13.9300 C.ar    1  UNL1       -0.0000
     19 C          63.1442   86.3643   12.8173 C.2     1  UNL1        0.2492
     20 O          63.2706   85.7706   14.1890 O.2     1  UNL1       -0.2698
     21 N          62.9626   85.4700   11.6268 N.am    1  UNL1       -0.2786
     22 H          62.8797   85.8597   10.7265 H       1  UNL1        0.1552
     23 C          62.9075   83.9820   11.8079 C.ar    1  UNL1        0.0784
     24 C          62.4323   83.4017   13.1069 C.ar    1  UNL1        0.0170
     25 C          62.3772   81.9137   13.2881 C.ar    1  UNL1        0.0025
     26 C          62.7973   81.0060   12.1703 C.ar    1  UNL1        0.0163
     27 C          63.2726   81.5863   10.8712 C.ar    1  UNL1        0.0320
     28 C          63.3277   83.0743   10.6900 C.ar    1  UNL1        0.1535
     29 F          63.8029   83.6546    9.3911 F       1  UNL1       -0.2029
     30 C          62.7422   79.5180   12.3515 C.2     1  UNL1        0.0729
     31 O          62.7911   78.9280   13.7297 O.co2   1  UNL1       -0.5446
     32 O          62.6382   78.6201   11.1545 O.co2   1  UNL1       -0.5446
@<TRIPOS>UNITY_ATOM_ATTR
31 1
charge -1
@<TRIPOS>BOND
     1     1     2    1
     2     2     3   ar
     3     3    13    1
     4    13    14   ar
     5    14    15   ar
     6    15    16   ar
     7    16    17   ar
     8    17    18   ar
     9     3     4   ar
    10     4     5   ar
    11     5     6   ar
    12     6     7   ar
    13     7     8   ar
    14     8     9    1
    15     8    10   ar
    16    10    11   ar
    17    11    12   ar
    18    12    19    1
    19    19    20    2
    20    19    21   am
    21    21    23    1
    22    23    24   ar
    23    24    25   ar
    24    25    26   ar
    25    26    30    1
    26    30    31   ar
    27    30    32   ar
    28    26    27   ar
    29    27    28   ar
    30    28    29    1
    31    12     2   ar
    32    28    23   ar
    33    18    13   ar
    34    11     5   ar
    35    21    22    1
@<TRIPOS>MOLECULE
*****
 32 35 0 0 0
SMALL
GASTEIGER

@<TRIPOS>ATOM
      1 C          61.7200   84.2713   10.5516 C.3     1  UNL1        0.0312
      2 C          62.3996   85.0006   11.6725 C.ar    1  UNL1       -0.0175
      3 C          62.9036   84.2418   12.8643 C.ar    1  UNL1       -0.0038
      4 C          63.5832   84.9710   13.9851 C.ar    1  UNL1       -0.0003
      5 C          63.7587   86.4591   13.9143 C.ar    1  UNL1        0.0002
      6 C          64.4383   87.1883   15.0352 C.ar    1  UNL1        0.0005
      7 C          64.6139   88.6763   14.9643 C.ar    1  UNL1        0.0067
      8 C          64.1098   89.4350   13.7726 C.ar    1  UNL1        0.0346
      9 BR         64.2854   90.9231   13.7017 Br      1  UNL1       -0.0490
     10 C          63.4303   88.7058   12.6517 C.ar    1  UNL1        0.0068
     11 C          63.2547   87.2179   12.7226 C.ar    1  UNL1        0.0046
     12 C          62.5751   86.4886   11.6017 C.ar    1  UNL1        0.0497
     13 C          62.7280   82.7538   12.9351 C.ar    1  UNL1       -0.0003
     14 C          63.2585   81.8828   11.8352 C.ar    1  UNL1       -0.0000
     15 C          63.0829   80.3948   11.9060 C.ar    1  UNL1       -0.0000
     16 C          62.3768   79.7778   13.0768 C.ar    1  UNL1       -0.0000
     17 C          61.8463   80.6488   14.1768 C.ar    1  UNL1       -0.0000
     18 C          62.0219   82.1368   14.1059 C.ar    1  UNL1       -0.0000
     19 C          62.0711   87.2473   10.4099 C.2     1  UNL1        0.2492
     20 O          63.0345   87.7343    9.3685 O.2     1  UNL1       -0.2698
     21 N          60.6035   87.5192   10.2597 N.am    1  UNL1       -0.2786
     22 H          59.9712   87.1996   10.9432 H       1  UNL1        0.1552
     23 C          60.0995   88.2779    9.0679 C.ar    1  UNL1        0.0784
     24 C          60.2805   89.7651    8.9943 C.ar    1  UNL1        0.0170
     25 C          59.7765   90.5239    7.8025 C.ar    1  UNL1        0.0025
     26 C          59.0915   89.7955    6.6845 C.ar    1  UNL1        0.0163
     27 C          58.9105   88.3082    6.7581 C.ar    1  UNL1        0.0320
     28 C          59.4145   87.5494    7.9498 C.ar    1  UNL1        0.1535
     29 F          59.2335   86.0622    8.0235 F       1  UNL1       -0.2029
     30 C          58.5875   90.5542    5.4927 C.2     1  UNL1        0.0729
     31 O          57.1121   90.6789    5.2521 O.co2   1  UNL1       -0.5446
     32 O          59.5587   91.1883    4.5416 O.co2   1  UNL1       -0.5446
@<TRIPOS>UNITY_ATOM_ATTR
31 1
charge -1
@<TRIPOS>BOND
     1     1     2    1
     2     2     3   ar
     3     3    13    1
     4    13    14   ar
     5    14    15   ar
     6    15    16   ar
     7    16    17   ar
     8    17    18   ar
     9     3     4   ar
    10     4     5   ar
    11     5     6   ar
    12     6     7   ar
    13     7     8   ar
    14     8     9    1
    15     8    10   ar
    16    10    11   ar
    17    11    12   ar
    18    12    19    1
    19    19    20    2
    20    19    21   am
    21    21    23    1
    22    23    24   ar
    23    24    25   ar
    24    25    26   ar
    25    26    30    1
    26    30    31   ar
    27    30    32   ar
    28    26    27   ar
    29    27    28   ar
    30    28    29    1
    31    12     2   ar
    32    28    23   ar
    33    18    13   ar
    34    11     5   ar
    35    21    22    1
