@<TRIPOS>MOLECULE
*****
 20 22 0 0 0
SMALL
GASTEIGER

@<TRIPOS>ATOM
      1 S          60.1331   88.4932   10.1085 S.3     1  UNL1       -0.0563
      2 C          61.0075   87.2847   10.2665 C.ar    1  UNL1        0.2586
      3 N          61.2805   86.5554   11.5485 N.ar    1  UNL1       -0.2027
      4 C          62.2041   85.4132   11.2445 C.ar    1  UNL1        0.1202
      5 C          62.8124   84.3550   12.1163 C.ar    1  UNL1        0.0337
      6 C          63.7186   83.3201   11.5182 C.ar    1  UNL1        0.0594
      7 CL         64.3269   82.2618   12.3900 Cl      1  UNL1       -0.0822
      8 C          64.0166   83.3436   10.0483 C.ar    1  UNL1        0.0146
      9 C          63.4083   84.4018    9.1765 C.ar    1  UNL1        0.0400
     10 C          62.5021   85.4367    9.7746 C.ar    1  UNL1        0.1653
     11 O          61.7626   86.5933    9.1702 O.2     1  UNL1       -0.4300
     12 C          60.7179   89.8665   10.2564 C.3     1  UNL1        0.0763
     13 C          62.2043   90.0421   10.3558 C.3     1  UNL1        0.0974
     14 O          62.3569   89.5343   12.8993 O.2     1  UNL1       -0.2748
     15 C          62.8438   90.2793   11.6919 C.2     1  UNL1        0.2265
     16 N          63.9701   91.2615   11.8204 N.am    1  UNL1       -0.2795
     17 C          64.5610   92.0760   10.7080 C.3     1  UNL1        0.0935
     18 C          65.6595   92.9196   11.2839 C.3     1  UNL1        0.0233
     19 C          65.7476   92.6264   12.7524 C.3     1  UNL1        0.0233
     20 C          64.7035   91.6017   13.0839 C.3     1  UNL1        0.0935
@<TRIPOS>BOND
     1    14    15    2
     2    15    13    1
     3    13    12    1
     4    12     1    1
     5     1     2    1
     6     2     3   ar
     7     3     4   ar
     8     4     5   ar
     9     5     6   ar
    10     6     7    1
    11     6     8   ar
    12     8     9   ar
    13     9    10   ar
    14    10    11   ar
    15    15    16   am
    16    16    17    1
    17    17    18    1
    18    18    19    1
    19    19    20    1
    20    11     2   ar
    21    20    16    1
    22    10     4   ar
@<TRIPOS>MOLECULE
*****
 20 22 0 0 0
SMALL
GASTEIGER

@<TRIPOS>ATOM
      1 S          64.2660   87.8753   14.8559 S.3     1  UNL1       -0.0563
      2 C          63.8964   86.5097   14.3576 C.ar    1  UNL1        0.2586
      3 N          63.9411   85.2388   15.1531 N.ar    1  UNL1       -0.2027
      4 C          63.4894   84.1188   14.2634 C.ar    1  UNL1        0.1202
      5 C          63.3312   82.6468   14.5046 C.ar    1  UNL1        0.0337
      6 C          62.8492   81.7535   13.4003 C.ar    1  UNL1        0.0594
      7 CL         62.6909   80.2814   13.6414 Cl      1  UNL1       -0.0822
      8 C          62.5253   82.3321   12.0548 C.ar    1  UNL1        0.0146
      9 C          62.6835   83.8041   11.8136 C.ar    1  UNL1        0.0400
     10 C          63.1656   84.6974   12.9179 C.ar    1  UNL1        0.1653
     11 O          63.4171   86.1751   12.9761 O.2     1  UNL1       -0.4300
     12 C          64.2131   89.0522   13.9275 C.3     1  UNL1        0.0763
     13 C          63.5776   90.3344   14.3773 C.3     1  UNL1        0.0974
     14 O          63.4828   91.3550   16.7646 O.2     1  UNL1       -0.2748
     15 C          64.2113   91.1423   15.4708 C.2     1  UNL1        0.2265
     16 N          65.5736   91.7374   15.2705 N.am    1  UNL1       -0.2795
     17 C          66.4186   91.6105   14.0377 C.3     1  UNL1        0.0935
     18 C          67.6973   92.3585   14.2730 C.3     1  UNL1        0.0233
     19 C          67.6425   92.9478   15.6514 C.3     1  UNL1        0.0233
     20 C          66.3300   92.5639   16.2678 C.3     1  UNL1        0.0935
@<TRIPOS>BOND
     1    14    15    2
     2    15    13    1
     3    13    12    1
     4    12     1    1
     5     1     2    1
     6     2     3   ar
     7     3     4   ar
     8     4     5   ar
     9     5     6   ar
    10     6     7    1
    11     6     8   ar
    12     8     9   ar
    13     9    10   ar
    14    10    11   ar
    15    15    16   am
    16    16    17    1
    17    17    18    1
    18    18    19    1
    19    19    20    1
    20    11     2   ar
    21    20    16    1
    22    10     4   ar
@<TRIPOS>MOLECULE
*****
 20 22 0 0 0
SMALL
GASTEIGER

@<TRIPOS>ATOM
      1 S          64.0315   89.2737   13.6058 S.3     1  UNL1       -0.0563
      2 C          63.1515   88.8321   12.4741 C.ar    1  UNL1        0.2586
      3 N          62.4276   89.7322   11.5172 N.ar    1  UNL1       -0.2027
      4 C          61.6696   88.8693   10.5523 C.ar    1  UNL1        0.1202
      5 C          60.7798   89.2036    9.3920 C.ar    1  UNL1        0.0337
      6 C          60.1455   88.1045    8.5923 C.ar    1  UNL1        0.0594
      7 CL         59.2556   88.4388    7.4319 Cl      1  UNL1       -0.0822
      8 C          60.4010   86.6711    8.9529 C.ar    1  UNL1        0.0146
      9 C          61.2908   86.3368   10.1132 C.ar    1  UNL1        0.0400
     10 C          61.9251   87.4359   10.9129 C.ar    1  UNL1        0.1653
     11 O          62.8410   87.4129   12.1006 O.2     1  UNL1       -0.4300
     12 C          64.1071   88.4552   14.8604 C.3     1  UNL1        0.0763
     13 C          64.5920   87.0369   14.8026 C.3     1  UNL1        0.0974
     14 O          63.4158   86.1169   16.9287 O.2     1  UNL1       -0.2748
     15 C          63.8208   85.9518   15.4939 C.2     1  UNL1        0.2265
     16 N          63.4545   84.7016   14.7503 N.am    1  UNL1       -0.2795
     17 C          63.7886   84.3965   13.3202 C.3     1  UNL1        0.0935
     18 C          63.2304   83.0434   12.9923 C.3     1  UNL1        0.0233
     19 C          62.5514   82.5122   14.2198 C.3     1  UNL1        0.0233
     20 C          62.6899   83.5371   15.3063 C.3     1  UNL1        0.0935
@<TRIPOS>BOND
     1    14    15    2
     2    15    13    1
     3    13    12    1
     4    12     1    1
     5     1     2    1
     6     2     3   ar
     7     3     4   ar
     8     4     5   ar
     9     5     6   ar
    10     6     7    1
    11     6     8   ar
    12     8     9   ar
    13     9    10   ar
    14    10    11   ar
    15    15    16   am
    16    16    17    1
    17    17    18    1
    18    18    19    1
    19    19    20    1
    20    11     2   ar
    21    20    16    1
    22    10     4   ar
@<TRIPOS>MOLECULE
*****
 20 22 0 0 0
SMALL
GASTEIGER

@<TRIPOS>ATOM
      1 S          61.2118   87.4880   10.5558 S.3     1  UNL1       -0.0563
      2 C          62.1245   88.5476   11.0981 C.ar    1  UNL1        0.2586
      3 N          62.6517   89.7296   10.3400 N.ar    1  UNL1       -0.2027
      4 C          63.5233   90.5238   11.2672 C.ar    1  UNL1        0.1202
      5 C          64.3080   91.7870   11.0713 C.ar    1  UNL1        0.0337
      6 C          65.1042   92.3590   12.2066 C.ar    1  UNL1        0.0594
      7 CL         65.8889   93.6223   12.0107 Cl      1  UNL1       -0.0822
      8 C          65.1157   91.6677   13.5377 C.ar    1  UNL1        0.0146
      9 C          64.3310   90.4045   13.7336 C.ar    1  UNL1        0.0400
     10 C          63.5348   89.8325   12.5983 C.ar    1  UNL1        0.1653
     11 O          62.6703   88.6111   12.4938 O.2     1  UNL1       -0.4300
     12 C          61.2629   86.0966   11.1137 C.3     1  UNL1        0.0763
     13 C          62.5787   85.3882   11.2429 C.3     1  UNL1        0.0974
     14 O          63.3707   85.7196   13.6951 O.2     1  UNL1       -0.2748
     15 C          62.9928   84.8101   12.5637 C.2     1  UNL1        0.2265
     16 N          63.0290   83.3225   12.7531 N.am    1  UNL1       -0.2795
     17 C          62.6803   82.2934   11.7190 C.3     1  UNL1        0.0935
     18 C          62.8560   80.9377   12.3366 C.3     1  UNL1        0.0233
     19 C          63.3132   81.1290   13.7523 C.3     1  UNL1        0.0233
     20 C          63.4201   82.6029   14.0097 C.3     1  UNL1        0.0935
@<TRIPOS>BOND
     1    14    15    2
     2    15    13    1
     3    13    12    1
     4    12     1    1
     5     1     2    1
     6     2     3   ar
     7     3     4   ar
     8     4     5   ar
     9     5     6   ar
    10     6     7    1
    11     6     8   ar
    12     8     9   ar
    13     9    10   ar
    14    10    11   ar
    15    15    16   am
    16    16    17    1
    17    17    18    1
    18    18    19    1
    19    19    20    1
    20    11     2   ar
    21    20    16    1
    22    10     4   ar
@<TRIPOS>MOLECULE
*****
 20 22 0 0 0
SMALL
GASTEIGER

@<TRIPOS>ATOM
      1 S          63.4033   84.3290   13.0893 S.3     1  UNL1       -0.0563
      2 C          62.7742   85.3398   12.1768 C.ar    1  UNL1        0.2586
      3 N          61.8587   85.0403   11.0270 N.ar    1  UNL1       -0.2027
      4 C          61.4687   86.3429   10.3934 C.ar    1  UNL1        0.1202
      5 C          60.5866   86.6659    9.2241 C.ar    1  UNL1        0.0337
      6 C          60.3791   88.0934    8.8130 C.ar    1  UNL1        0.0594
      7 CL         59.4969   88.4165    7.6436 Cl      1  UNL1       -0.0822
      8 C          61.0536   89.1979    9.5713 C.ar    1  UNL1        0.0146
      9 C          61.9357   88.8749   10.7407 C.ar    1  UNL1        0.0400
     10 C          62.1433   87.4474   11.1517 C.ar    1  UNL1        0.1653
     11 O          62.9501   86.8274   12.2539 O.2     1  UNL1       -0.4300
     12 C          63.2128   84.4370   14.5732 C.3     1  UNL1        0.0763
     13 C          64.1021   85.3359   15.3801 C.3     1  UNL1        0.0974
     14 O          62.7416   85.9866   17.4957 O.2     1  UNL1       -0.2748
     15 C          63.5013   86.3869   16.2658 C.2     1  UNL1        0.2265
     16 N          63.6602   87.8382   15.9216 N.am    1  UNL1       -0.2795
     17 C          64.3890   88.3873   14.7312 C.3     1  UNL1        0.0935
     18 C          64.2974   89.8837   14.7813 C.3     1  UNL1        0.0233
     19 C          63.5119   90.2594   16.0027 C.3     1  UNL1        0.0233
     20 C          63.1181   88.9952   16.7075 C.3     1  UNL1        0.0935
@<TRIPOS>BOND
     1    14    15    2
     2    15    13    1
     3    13    12    1
     4    12     1    1
     5     1     2    1
     6     2     3   ar
     7     3     4   ar
     8     4     5   ar
     9     5     6   ar
    10     6     7    1
    11     6     8   ar
    12     8     9   ar
    13     9    10   ar
    14    10    11   ar
    15    15    16   am
    16    16    17    1
    17    17    18    1
    18    18    19    1
    19    19    20    1
    20    11     2   ar
    21    20    16    1
    22    10     4   ar
@<TRIPOS>MOLECULE
*****
 20 22 0 0 0
SMALL
GASTEIGER

@<TRIPOS>ATOM
      1 S          60.4548   88.9950   10.6976 S.3     1  UNL1       -0.0563
      2 C          61.6506   89.5721   11.3954 C.ar    1  UNL1        0.2586
      3 N          62.4869   90.7186   10.9094 N.ar    1  UNL1       -0.2027
      4 C          63.5733   90.9592   11.9154 C.ar    1  UNL1        0.1202
      5 C          64.6913   91.9579   11.9658 C.ar    1  UNL1        0.0337
      6 C          65.6444   91.9588   13.1240 C.ar    1  UNL1        0.0594
      7 CL         66.7625   92.9575   13.1744 Cl      1  UNL1       -0.0822
      8 C          65.4796   90.9609   14.2318 C.ar    1  UNL1        0.0146
      9 C          64.3615   89.9622   14.1813 C.ar    1  UNL1        0.0400
     10 C          63.4084   89.9614   13.0232 C.ar    1  UNL1        0.1653
     11 O          62.2201   89.1042   12.7018 O.2     1  UNL1       -0.4300
     12 C          60.5319   87.6289   10.0831 C.3     1  UNL1        0.0763
     13 C          61.2688   86.5295   10.7890 C.3     1  UNL1        0.0974
     14 O          62.5535   85.9799    8.5987 O.2     1  UNL1       -0.2748
     15 C          62.2438   85.6751   10.0344 C.2     1  UNL1        0.2265
     16 N          62.9091   84.5160   10.7154 N.am    1  UNL1       -0.2795
     17 C          62.7001   84.0914   12.1388 C.3     1  UNL1        0.0935
     18 C          63.5621   82.8910   12.3958 C.3     1  UNL1        0.0233
     19 C          64.3038   82.5737   11.1312 C.3     1  UNL1        0.0233
     20 C          63.9003   83.5780   10.0927 C.3     1  UNL1        0.0935
@<TRIPOS>BOND
     1    14    15    2
     2    15    13    1
     3    13    12    1
     4    12     1    1
     5     1     2    1
     6     2     3   ar
     7     3     4   ar
     8     4     5   ar
     9     5     6   ar
    10     6     7    1
    11     6     8   ar
    12     8     9   ar
    13     9    10   ar
    14    10    11   ar
    15    15    16   am
    16    16    17    1
    17    17    18    1
    18    18    19    1
    19    19    20    1
    20    11     2   ar
    21    20    16    1
    22    10     4   ar
@<TRIPOS>MOLECULE
*****
 20 22 0 0 0
SMALL
GASTEIGER

@<TRIPOS>ATOM
      1 S          64.1874   83.0849   10.7488 S.3     1  UNL1       -0.0563
      2 C          63.2609   84.2289   10.4609 C.ar    1  UNL1        0.2586
      3 N          62.9105   84.7592    9.1022 N.ar    1  UNL1       -0.2027
      4 C          61.9552   85.9015    9.2827 C.ar    1  UNL1        0.1202
      5 C          61.2728   86.8044    8.2982 C.ar    1  UNL1        0.0337
      6 C          60.3505   87.8829    8.7840 C.ar    1  UNL1        0.0594
      7 CL         59.6681   88.7858    7.7995 Cl      1  UNL1       -0.0822
      8 C          60.1105   88.0586   10.2542 C.ar    1  UNL1        0.0146
      9 C          60.7928   87.1557   11.2387 C.ar    1  UNL1        0.0400
     10 C          61.7152   86.0772   10.7529 C.ar    1  UNL1        0.1653
     11 O          62.5222   85.0434   11.4811 O.2     1  UNL1       -0.4300
     12 C          63.6997   81.9045   11.5354 C.3     1  UNL1        0.0763
     13 C          64.1137   81.7345   12.9671 C.3     1  UNL1        0.0974
     14 O          62.0983   81.5920   14.6005 O.2     1  UNL1       -0.2748
     15 C          63.2853   82.3355   14.0638 C.2     1  UNL1        0.2265
     16 N          63.6441   83.6801   14.6238 N.am    1  UNL1       -0.2795
     17 C          64.7963   84.5369   14.1900 C.3     1  UNL1        0.0935
     18 C          64.7779   85.7903   15.0139 C.3     1  UNL1        0.0233
     19 C          63.6143   85.7080   15.9569 C.3     1  UNL1        0.0233
     20 C          62.9136   84.4038   15.7158 C.3     1  UNL1        0.0935
@<TRIPOS>BOND
     1    14    15    2
     2    15    13    1
     3    13    12    1
     4    12     1    1
     5     1     2    1
     6     2     3   ar
     7     3     4   ar
     8     4     5   ar
     9     5     6   ar
    10     6     7    1
    11     6     8   ar
    12     8     9   ar
    13     9    10   ar
    14    10    11   ar
    15    15    16   am
    16    16    17    1
    17    17    18    1
    18    18    19    1
    19    19    20    1
    20    11     2   ar
    21    20    16    1
    22    10     4   ar
@<TRIPOS>MOLECULE
*****
 20 22 0 0 0
SMALL
GASTEIGER

@<TRIPOS>ATOM
      1 S          63.8321   90.8272   13.2746 S.3     1  UNL1       -0.0563
      2 C          63.8487   89.3353   13.4297 C.ar    1  UNL1        0.2586
      3 N          63.2313   88.3440   12.4884 N.ar    1  UNL1       -0.2027
      4 C          63.4867   86.9689   13.0303 C.ar    1  UNL1        0.1202
      5 C          63.1135   85.6062   12.5265 C.ar    1  UNL1        0.0337
      6 C          63.5155   84.3849   13.2990 C.ar    1  UNL1        0.0594
      7 CL         63.1423   83.0222   12.7952 Cl      1  UNL1       -0.0822
      8 C          64.2908   84.5263   14.5753 C.ar    1  UNL1        0.0146
      9 C          64.6640   85.8890   15.0791 C.ar    1  UNL1        0.0400
     10 C          64.2620   87.1102   14.3066 C.ar    1  UNL1        0.1653
     11 O          64.4857   88.5728   14.5534 O.2     1  UNL1       -0.4300
     12 C          64.3877   91.4583   12.0324 C.3     1  UNL1        0.0763
     13 C          65.2770   92.6618   12.1360 C.3     1  UNL1        0.0974
     14 O          67.7433   92.2758   11.4159 O.2     1  UNL1       -0.2748
     15 C          66.7243   92.4963   12.4942 C.2     1  UNL1        0.2265
     16 N          67.1524   92.5514   13.9308 N.am    1  UNL1       -0.2795
     17 C          66.2521   92.7641   15.1116 C.3     1  UNL1        0.0935
     18 C          67.0992   92.7476   16.3494 C.3     1  UNL1        0.0233
     19 C          68.5231   92.5248   15.9336 C.3     1  UNL1        0.0233
     20 C          68.5559   92.4035   14.4389 C.3     1  UNL1        0.0935
@<TRIPOS>BOND
     1    14    15    2
     2    15    13    1
     3    13    12    1
     4    12     1    1
     5     1     2    1
     6     2     3   ar
     7     3     4   ar
     8     4     5   ar
     9     5     6   ar
    10     6     7    1
    11     6     8   ar
    12     8     9   ar
    13     9    10   ar
    14    10    11   ar
    15    15    16   am
    16    16    17    1
    17    17    18    1
    18    18    19    1
    19    19    20    1
    20    11     2   ar
    21    20    16    1
    22    10     4   ar
@<TRIPOS>MOLECULE
*****
 20 22 0 0 0
SMALL
GASTEIGER

@<TRIPOS>ATOM
      1 S          63.0140   87.2601   17.2104 S.3     1  UNL1       -0.0563
      2 C          63.1305   86.0756   16.2974 C.ar    1  UNL1        0.2586
      3 N          62.1944   84.9046   16.2485 N.ar    1  UNL1       -0.2027
      4 C          62.6889   83.9595   15.1939 C.ar    1  UNL1        0.1202
      5 C          62.1689   82.6403   14.7048 C.ar    1  UNL1        0.0337
      6 C          62.8906   81.9080   13.6127 C.ar    1  UNL1        0.0594
      7 CL         62.3707   80.5887   13.1235 Cl      1  UNL1       -0.0822
      8 C          64.1324   82.4949   13.0098 C.ar    1  UNL1        0.0146
      9 C          64.6524   83.8141   13.4989 C.ar    1  UNL1        0.0400
     10 C          63.9306   84.5463   14.5910 C.ar    1  UNL1        0.1653
     11 O          64.2036   85.8542   15.2730 O.2     1  UNL1       -0.4300
     12 C          63.0330   88.6487   16.6435 C.3     1  UNL1        0.0763
     13 C          63.9126   88.9682   15.4712 C.3     1  UNL1        0.0974
     14 O          63.6023   91.5223   15.1101 O.2     1  UNL1       -0.2748
     15 C          63.5760   90.1219   14.5735 C.2     1  UNL1        0.2265
     16 N          63.2132   89.8751   13.1391 N.am    1  UNL1       -0.2795
     17 C          63.1448   88.5370   12.4647 C.3     1  UNL1        0.0935
     18 C          62.7443   88.7579   11.0361 C.3     1  UNL1        0.0233
     19 C          62.5652   90.2325   10.8276 C.3     1  UNL1        0.0233
     20 C          62.8549   90.9229   12.1274 C.3     1  UNL1        0.0935
@<TRIPOS>BOND
     1    14    15    2
     2    15    13    1
     3    13    12    1
     4    12     1    1
     5     1     2    1
     6     2     3   ar
     7     3     4   ar
     8     4     5   ar
     9     5     6   ar
    10     6     7    1
    11     6     8   ar
    12     8     9   ar
    13     9    10   ar
    14    10    11   ar
    15    15    16   am
    16    16    17    1
    17    17    18    1
    18    18    19    1
    19    19    20    1
    20    11     2   ar
    21    20    16    1
    22    10     4   ar
