@<TRIPOS>MOLECULE
*****
 35 39 0 0 0
SMALL
GASTEIGER

@<TRIPOS>ATOM
      1 N          62.0362   87.8333   10.5624 N.3     1  UNL1       -0.2665
      2 C          62.3594   87.3470    9.1807 C.3     1  UNL1        0.0899
      3 C          62.7283   85.9101    8.9585 C.3     1  UNL1        0.0898
      4 N          62.7740   84.9596   10.1180 N.3     1  UNL1       -0.2672
      5 C          62.4507   85.4459   11.4997 C.3     1  UNL1        0.0898
      6 C          62.0819   86.8828   11.7219 C.3     1  UNL1        0.0899
      7 C          61.6673   89.2702   10.7846 C.3     1  UNL1        0.1015
      8 N          64.9939   91.3933   14.1650 N.am    1  UNL1       -0.2512
      9 C          66.0592   92.4009   14.4805 C.2     1  UNL1        0.2740
     10 O          66.6571   92.4548   15.8552 O.2     1  UNL1       -0.2705
     11 C          66.5268   93.3547   13.4214 C.3     1  UNL1        0.2900
     12 O          65.9289   93.3008   12.0468 O.3     1  UNL1       -0.4643
     13 C          64.8636   92.2932   11.7313 C.ar    1  UNL1        0.1550
     14 C          64.2657   92.2393   10.3566 C.ar    1  UNL1        0.0381
     15 C          63.2003   91.2316   10.0411 C.ar    1  UNL1        0.0025
     16 C          62.7328   90.2779   11.1002 C.ar    1  UNL1        0.0228
     17 C          63.3306   90.3317   12.4748 C.ar    1  UNL1        0.1540
     18 F          62.8631   89.3779   13.5339 F       1  UNL1       -0.2030
     19 C          64.3960   91.3394   12.7904 C.ar    1  UNL1        0.1156
     20 C          63.6254   90.9211   16.3224 C.3     1  UNL1        0.0237
     21 C          64.5263   90.4395   15.2241 C.3     1  UNL1        0.0985
     22 C          63.1428   83.5227    9.8958 C.3     1  UNL1        0.1201
     23 C          64.5440   83.0582   10.1627 C.3     1  UNL1        0.2226
     24 O          64.8394   82.2225   11.3727 O.3     1  UNL1       -0.4739
     25 C          63.7941   82.0427   12.4334 C.ar    1  UNL1        0.1400
     26 C          62.8748   80.8583   12.3874 C.ar    1  UNL1        0.0370
     27 C          61.8295   80.6785   13.4480 C.ar    1  UNL1        0.0047
     28 C          61.7036   81.6831   14.5549 C.ar    1  UNL1        0.0193
     29 C          62.6229   82.8674   14.6010 C.ar    1  UNL1        0.0838
     30 N          62.4970   83.8719   15.7078 N.ar    1  UNL1       -0.2496
     31 C          63.4164   85.0563   15.7539 C.ar    1  UNL1        0.0593
     32 C          63.2905   86.0609   16.8607 C.3     1  UNL1        0.0521
     33 C          64.4616   85.2361   14.6932 C.ar    1  UNL1        0.0148
     34 C          64.5875   84.2316   13.5864 C.ar    1  UNL1        0.0057
     35 C          63.6682   83.0472   13.5402 C.ar    1  UNL1        0.0516
@<TRIPOS>BOND
     1    20    21    1
     2    21     8    1
     3     8     9   am
     4     9    10    2
     5     9    11    1
     6    11    12    1
     7    12    13    1
     8    13    14   ar
     9    14    15   ar
    10    15    16   ar
    11    16     7    1
    12     7     1    1
    13     1     2    1
    14     2     3    1
    15     3     4    1
    16     4    22    1
    17    22    23    1
    18    23    24    1
    19    24    25    1
    20    25    26   ar
    21    26    27   ar
    22    27    28   ar
    23    28    29   ar
    24    29    30   ar
    25    30    31   ar
    26    31    32    1
    27    31    33   ar
    28    33    34   ar
    29    34    35   ar
    30     4     5    1
    31     5     6    1
    32    16    17   ar
    33    17    18    1
    34    17    19   ar
    35    19     8    1
    36    19    13   ar
    37     6     1    1
    38    35    25   ar
    39    35    29   ar
@<TRIPOS>MOLECULE
*****
 35 39 0 0 0
SMALL
GASTEIGER

@<TRIPOS>ATOM
      1 N          63.6579   87.8827   15.6108 N.3     1  UNL1       -0.2665
      2 C          64.4354   87.1631   14.5488 C.3     1  UNL1        0.0899
      3 C          64.5166   85.6654   14.5637 C.3     1  UNL1        0.0898
      4 N          63.8202   84.8872   15.6405 N.3     1  UNL1       -0.2672
      5 C          63.0426   85.6067   16.7024 C.3     1  UNL1        0.0898
      6 C          62.9615   87.1045   16.6876 C.3     1  UNL1        0.0899
      7 C          63.5767   89.3804   15.5960 C.3     1  UNL1        0.1015
      8 N          65.9033   93.1983   12.9481 N.am    1  UNL1       -0.2512
      9 C          66.1153   93.9482   11.6665 C.2     1  UNL1        0.2740
     10 O          67.0665   95.1073   11.6242 O.2     1  UNL1       -0.2705
     11 C          65.3761   93.5390   10.4270 C.3     1  UNL1        0.2900
     12 O          64.4250   92.3799   10.4692 O.3     1  UNL1       -0.4643
     13 C          64.2129   91.6301   11.7509 C.ar    1  UNL1        0.1550
     14 C          63.2617   90.4710   11.7932 C.ar    1  UNL1        0.0381
     15 C          63.0497   89.7211   13.0748 C.ar    1  UNL1        0.0025
     16 C          63.7888   90.1303   14.3143 C.ar    1  UNL1        0.0228
     17 C          64.7400   91.2893   14.2721 C.ar    1  UNL1        0.1540
     18 F          65.4791   91.6985   15.5115 F       1  UNL1       -0.2030
     19 C          64.9521   92.0393   12.9904 C.ar    1  UNL1        0.1156
     20 C          67.9723   92.9909   14.5057 C.3     1  UNL1        0.0237
     21 C          66.6424   93.6075   14.1876 C.3     1  UNL1        0.0985
     22 C          63.9013   83.3895   15.6553 C.3     1  UNL1        0.1201
     23 C          63.3741   82.5983   14.4951 C.3     1  UNL1        0.2226
     24 O          62.4473   83.2426   13.5072 O.3     1  UNL1       -0.4739
     25 C          62.8971   83.4695   12.0944 C.ar    1  UNL1        0.1400
     26 C          63.7657   82.4548   11.4117 C.ar    1  UNL1        0.0370
     27 C          64.2156   82.6817    9.9989 C.ar    1  UNL1        0.0047
     28 C          63.7968   83.9232    9.2686 C.ar    1  UNL1        0.0193
     29 C          62.9281   84.9378    9.9512 C.ar    1  UNL1        0.0838
     30 N          62.5093   86.1793    9.2210 N.ar    1  UNL1       -0.2496
     31 C          61.6407   87.1940    9.9036 C.ar    1  UNL1        0.0593
     32 C          61.2219   88.4355    9.1734 C.3     1  UNL1        0.0521
     33 C          61.1909   86.9671   11.3165 C.ar    1  UNL1        0.0148
     34 C          61.6097   85.7256   12.0467 C.ar    1  UNL1        0.0057
     35 C          62.4783   84.7110   11.3641 C.ar    1  UNL1        0.0516
@<TRIPOS>BOND
     1    20    21    1
     2    21     8    1
     3     8     9   am
     4     9    10    2
     5     9    11    1
     6    11    12    1
     7    12    13    1
     8    13    14   ar
     9    14    15   ar
    10    15    16   ar
    11    16     7    1
    12     7     1    1
    13     1     2    1
    14     2     3    1
    15     3     4    1
    16     4    22    1
    17    22    23    1
    18    23    24    1
    19    24    25    1
    20    25    26   ar
    21    26    27   ar
    22    27    28   ar
    23    28    29   ar
    24    29    30   ar
    25    30    31   ar
    26    31    32    1
    27    31    33   ar
    28    33    34   ar
    29    34    35   ar
    30     4     5    1
    31     5     6    1
    32    16    17   ar
    33    17    18    1
    34    17    19   ar
    35    19     8    1
    36    19    13   ar
    37     6     1    1
    38    35    25   ar
    39    35    29   ar
@<TRIPOS>MOLECULE
*****
 35 39 0 0 0
SMALL
GASTEIGER

@<TRIPOS>ATOM
      1 N          63.3867   88.2295   16.1255 N.3     1  UNL1       -0.2665
      2 C          64.2580   87.7750   14.9922 C.3     1  UNL1        0.0899
      3 C          64.4977   86.3109   14.7709 C.3     1  UNL1        0.0898
      4 N          63.8661   85.3013   15.6829 N.3     1  UNL1       -0.2672
      5 C          62.9949   85.7558   16.8162 C.3     1  UNL1        0.0898
      6 C          62.7552   87.2199   17.0375 C.3     1  UNL1        0.0899
      7 C          63.1471   89.6936   16.3468 C.3     1  UNL1        0.1015
      8 N          64.8584   91.9421   11.9861 N.am    1  UNL1       -0.2512
      9 C          65.7265   92.9560   11.3017 C.2     1  UNL1        0.2740
     10 O          65.7141   93.0663    9.8057 O.2     1  UNL1       -0.2705
     11 C          66.6068   93.8596   12.1131 C.3     1  UNL1        0.2900
     12 O          66.6192   93.7493   13.6090 O.3     1  UNL1       -0.4643
     13 C          65.7511   92.7354   14.2934 C.ar    1  UNL1        0.1550
     14 C          65.7635   92.6251   15.7893 C.ar    1  UNL1        0.0381
     15 C          64.8955   91.6112   16.4738 C.ar    1  UNL1        0.0025
     16 C          64.0151   90.7075   15.6623 C.ar    1  UNL1        0.0228
     17 C          64.0027   90.8178   14.1665 C.ar    1  UNL1        0.1540
     18 F          63.1224   89.9142   13.3550 F       1  UNL1       -0.2030
     19 C          64.8708   91.8318   13.4820 C.ar    1  UNL1        0.1156
     20 C          63.1318   91.6063   10.0741 C.3     1  UNL1        0.0237
     21 C          63.9781   91.0384   11.1747 C.3     1  UNL1        0.0985
     22 C          64.1058   83.8372   15.4616 C.3     1  UNL1        0.1201
     23 C          63.6151   83.1782   14.2066 C.3     1  UNL1        0.2226
     24 O          62.6237   83.8821   13.3282 O.3     1  UNL1       -0.4739
     25 C          62.9185   84.0761   11.8703 C.ar    1  UNL1        0.1400
     26 C          63.7981   83.1002   11.1465 C.ar    1  UNL1        0.0370
     27 C          64.0929   83.2942    9.6887 C.ar    1  UNL1        0.0047
     28 C          63.5080   84.4642    8.9545 C.ar    1  UNL1        0.0193
     29 C          62.6284   85.4402    9.6781 C.ar    1  UNL1        0.0838
     30 N          62.0435   86.6101    8.9440 N.ar    1  UNL1       -0.2496
     31 C          61.1638   87.5861    9.6677 C.ar    1  UNL1        0.0593
     32 C          60.5789   88.7561    8.9335 C.3     1  UNL1        0.0521
     33 C          60.8691   87.3921   11.1256 C.ar    1  UNL1        0.0148
     34 C          61.4540   86.2221   11.8598 C.ar    1  UNL1        0.0057
     35 C          62.3336   85.2461   11.1361 C.ar    1  UNL1        0.0516
@<TRIPOS>BOND
     1    20    21    1
     2    21     8    1
     3     8     9   am
     4     9    10    2
     5     9    11    1
     6    11    12    1
     7    12    13    1
     8    13    14   ar
     9    14    15   ar
    10    15    16   ar
    11    16     7    1
    12     7     1    1
    13     1     2    1
    14     2     3    1
    15     3     4    1
    16     4    22    1
    17    22    23    1
    18    23    24    1
    19    24    25    1
    20    25    26   ar
    21    26    27   ar
    22    27    28   ar
    23    28    29   ar
    24    29    30   ar
    25    30    31   ar
    26    31    32    1
    27    31    33   ar
    28    33    34   ar
    29    34    35   ar
    30     4     5    1
    31     5     6    1
    32    16    17   ar
    33    17    18    1
    34    17    19   ar
    35    19     8    1
    36    19    13   ar
    37     6     1    1
    38    35    25   ar
    39    35    29   ar
@<TRIPOS>MOLECULE
*****
 35 39 0 0 0
SMALL
GASTEIGER

@<TRIPOS>ATOM
      1 N          63.6301   84.6786   14.5861 N.3     1  UNL1       -0.2665
      2 C          62.6335   84.5870   15.7035 C.3     1  UNL1        0.0899
      3 C          62.4504   85.7430   16.6417 C.3     1  UNL1        0.0898
      4 N          63.2638   86.9905   16.4625 N.3     1  UNL1       -0.2672
      5 C          64.2603   87.0821   15.3452 C.3     1  UNL1        0.0898
      6 C          64.4435   85.9261   14.4070 C.3     1  UNL1        0.0899
      7 C          63.8133   83.5226   13.6479 C.3     1  UNL1        0.1015
      8 N          61.4425   85.9039    9.6845 N.am    1  UNL1       -0.2512
      9 C          61.2590   86.0995    8.2086 C.2     1  UNL1        0.2740
     10 O          60.2571   87.0946    7.7027 O.2     1  UNL1       -0.2705
     11 C          62.0775   85.2999    7.2387 C.3     1  UNL1        0.2900
     12 O          63.0794   84.3048    7.7445 O.3     1  UNL1       -0.4643
     13 C          63.2629   84.1093    9.2204 C.ar    1  UNL1        0.1550
     14 C          64.2648   83.1142    9.7263 C.ar    1  UNL1        0.0381
     15 C          64.4483   82.9186   11.2021 C.ar    1  UNL1        0.0025
     16 C          63.6298   83.7182   12.1721 C.ar    1  UNL1        0.0228
     17 C          62.6279   84.7133   11.6662 C.ar    1  UNL1        0.1540
     18 F          61.8094   85.5129   12.6362 F       1  UNL1       -0.2030
     19 C          62.4444   84.9089   10.1903 C.ar    1  UNL1        0.1156
     20 C          60.8549   88.1791   10.7927 C.3     1  UNL1        0.0237
     21 C          60.6240   86.7035   10.6544 C.3     1  UNL1        0.0985
     22 C          63.0806   88.1465   17.4007 C.3     1  UNL1        0.1201
     23 C          63.1469   89.5520   16.8810 C.3     1  UNL1        0.2226
     24 O          62.4689   89.9074   15.5910 O.3     1  UNL1       -0.4739
     25 C          63.2713   90.4540   14.4477 C.ar    1  UNL1        0.1400
     26 C          62.8671   90.1513   13.0352 C.ar    1  UNL1        0.0370
     27 C          63.6696   90.6980   11.8919 C.ar    1  UNL1        0.0047
     28 C          64.8762   91.5474   12.1610 C.ar    1  UNL1        0.0193
     29 C          65.2805   91.8502   13.5734 C.ar    1  UNL1        0.0838
     30 N          66.4871   92.6996   13.8425 N.ar    1  UNL1       -0.2496
     31 C          66.8913   93.0024   15.2550 C.ar    1  UNL1        0.0593
     32 C          68.0980   93.8518   15.5241 C.3     1  UNL1        0.0521
     33 C          66.0889   92.4557   16.3983 C.ar    1  UNL1        0.0148
     34 C          64.8822   91.6062   16.1292 C.ar    1  UNL1        0.0057
     35 C          64.4780   91.3035   14.7168 C.ar    1  UNL1        0.0516
@<TRIPOS>BOND
     1    20    21    1
     2    21     8    1
     3     8     9   am
     4     9    10    2
     5     9    11    1
     6    11    12    1
     7    12    13    1
     8    13    14   ar
     9    14    15   ar
    10    15    16   ar
    11    16     7    1
    12     7     1    1
    13     1     2    1
    14     2     3    1
    15     3     4    1
    16     4    22    1
    17    22    23    1
    18    23    24    1
    19    24    25    1
    20    25    26   ar
    21    26    27   ar
    22    27    28   ar
    23    28    29   ar
    24    29    30   ar
    25    30    31   ar
    26    31    32    1
    27    31    33   ar
    28    33    34   ar
    29    34    35   ar
    30     4     5    1
    31     5     6    1
    32    16    17   ar
    33    17    18    1
    34    17    19   ar
    35    19     8    1
    36    19    13   ar
    37     6     1    1
    38    35    25   ar
    39    35    29   ar
@<TRIPOS>MOLECULE
*****
 35 39 0 0 0
SMALL
GASTEIGER

@<TRIPOS>ATOM
      1 N          63.5697   85.2819   14.6973 N.3     1  UNL1       -0.2665
      2 C          62.8138   85.3048   15.9927 C.3     1  UNL1        0.0899
      3 C          62.7420   86.5690   16.7969 C.3     1  UNL1        0.0898
      4 N          63.4262   87.8103   16.3056 N.3     1  UNL1       -0.2672
      5 C          64.1821   87.7873   15.0102 C.3     1  UNL1        0.0898
      6 C          64.2538   86.5231   14.2060 C.3     1  UNL1        0.0899
      7 C          63.6415   84.0177   13.8931 C.3     1  UNL1        0.1015
      8 N          61.4006   85.9835    9.6369 N.am    1  UNL1       -0.2512
      9 C          61.2713   86.0363    8.1435 C.2     1  UNL1        0.2740
     10 O          60.2802   86.9664    7.5089 O.2     1  UNL1       -0.2705
     11 C          62.1331   85.1590    7.2846 C.3     1  UNL1        0.2900
     12 O          63.1242   84.2290    7.9191 O.3     1  UNL1       -0.4643
     13 C          63.2535   84.1762    9.4126 C.ar    1  UNL1        0.1550
     14 C          64.2446   83.2461   10.0472 C.ar    1  UNL1        0.0381
     15 C          64.3739   83.1933   11.5406 C.ar    1  UNL1        0.0025
     16 C          63.5121   84.0706   12.3995 C.ar    1  UNL1        0.0228
     17 C          62.5210   85.0006   11.7650 C.ar    1  UNL1        0.1540
     18 F          61.6593   85.8779   12.6239 F       1  UNL1       -0.2030
     19 C          62.3917   85.0535   10.2715 C.ar    1  UNL1        0.1156
     20 C          60.8557   88.3205   10.6326 C.3     1  UNL1        0.0237
     21 C          60.5388   86.8608   10.4958 C.3     1  UNL1        0.0985
     22 C          63.3544   89.0745   17.1098 C.3     1  UNL1        0.1201
     23 C          63.0393   90.3762   16.4343 C.3     1  UNL1        0.2226
     24 O          63.6476   90.6957   15.1009 O.3     1  UNL1       -0.4739
     25 C          64.8528   91.5851   15.0200 C.ar    1  UNL1        0.1400
     26 C          65.5840   91.9728   16.2710 C.ar    1  UNL1        0.0370
     27 C          66.7892   92.8622   16.1902 C.ar    1  UNL1        0.0047
     28 C          67.2631   93.3638   14.8584 C.ar    1  UNL1        0.0193
     29 C          66.5319   92.9761   13.6074 C.ar    1  UNL1        0.0838
     30 N          67.0059   93.4778   12.2756 N.ar    1  UNL1       -0.2496
     31 C          66.2746   93.0901   11.0246 C.ar    1  UNL1        0.0593
     32 C          66.7485   93.5917    9.6928 C.3     1  UNL1        0.0521
     33 C          65.0694   92.2007   11.1054 C.ar    1  UNL1        0.0148
     34 C          64.5955   91.6990   12.4372 C.ar    1  UNL1        0.0057
     35 C          65.3267   92.0867   13.6882 C.ar    1  UNL1        0.0516
@<TRIPOS>BOND
     1    20    21    1
     2    21     8    1
     3     8     9   am
     4     9    10    2
     5     9    11    1
     6    11    12    1
     7    12    13    1
     8    13    14   ar
     9    14    15   ar
    10    15    16   ar
    11    16     7    1
    12     7     1    1
    13     1     2    1
    14     2     3    1
    15     3     4    1
    16     4    22    1
    17    22    23    1
    18    23    24    1
    19    24    25    1
    20    25    26   ar
    21    26    27   ar
    22    27    28   ar
    23    28    29   ar
    24    29    30   ar
    25    30    31   ar
    26    31    32    1
    27    31    33   ar
    28    33    34   ar
    29    34    35   ar
    30     4     5    1
    31     5     6    1
    32    16    17   ar
    33    17    18    1
    34    17    19   ar
    35    19     8    1
    36    19    13   ar
    37     6     1    1
    38    35    25   ar
    39    35    29   ar
@<TRIPOS>MOLECULE
*****
 35 39 0 0 0
SMALL
GASTEIGER

@<TRIPOS>ATOM
      1 N          63.9619   87.5754   13.7643 N.3     1  UNL1       -0.2665
      2 C          63.2079   87.2827   12.5009 C.3     1  UNL1        0.0899
      3 C          62.7324   88.4100   11.6331 C.3     1  UNL1        0.0898
      4 N          63.0109   89.8299   12.0285 N.3     1  UNL1       -0.2672
      5 C          63.7649   90.1225   13.2918 C.3     1  UNL1        0.0898
      6 C          64.2404   88.9953   14.1596 C.3     1  UNL1        0.0899
      7 C          64.4374   86.4482   14.6321 C.3     1  UNL1        0.1015
      8 N          63.4464   81.8907   12.3414 N.am    1  UNL1       -0.2512
      9 C          62.7259   80.5752   12.3237 C.2     1  UNL1        0.2740
     10 O          62.9509   79.6119   11.1960 O.2     1  UNL1       -0.2705
     11 C          61.7805   80.2229   13.4336 C.3     1  UNL1        0.2900
     12 O          61.5555   81.1860   14.5613 O.3     1  UNL1       -0.4643
     13 C          62.2759   82.5015   14.5790 C.ar    1  UNL1        0.1550
     14 C          62.0510   83.4648   15.7067 C.ar    1  UNL1        0.0381
     15 C          62.7715   84.7803   15.7244 C.ar    1  UNL1        0.0025
     16 C          63.7169   85.1326   14.6144 C.ar    1  UNL1        0.0228
     17 C          63.9419   84.1694   13.4868 C.ar    1  UNL1        0.1540
     18 F          64.8873   84.5217   12.3768 F       1  UNL1       -0.2030
     19 C          63.2214   82.8538   13.4690 C.ar    1  UNL1        0.1156
     20 C          63.8868   82.9628   10.0162 C.3     1  UNL1        0.0237
     21 C          64.3918   82.2430   11.2314 C.3     1  UNL1        0.0985
     22 C          62.5354   90.9572   11.1606 C.3     1  UNL1        0.1201
     23 C          63.5034   91.6771   10.2691 C.3     1  UNL1        0.2226
     24 O          64.4032   92.7341   10.8377 O.3     1  UNL1       -0.4739
     25 C          65.8762   92.4788   10.9599 C.ar    1  UNL1        0.1400
     26 C          66.7060   92.2703    9.7277 C.ar    1  UNL1        0.0370
     27 C          68.1790   92.0150    9.8499 C.ar    1  UNL1        0.0047
     28 C          68.8224   91.9684   11.2041 C.ar    1  UNL1        0.0193
     29 C          67.9927   92.1769   12.4362 C.ar    1  UNL1        0.0838
     30 N          68.6360   92.1302   13.7904 N.ar    1  UNL1       -0.2496
     31 C          67.8063   92.3388   15.0225 C.ar    1  UNL1        0.0593
     32 C          68.4496   92.2921   16.3768 C.3     1  UNL1        0.0521
     33 C          66.3332   92.5940   14.9004 C.ar    1  UNL1        0.0148
     34 C          65.6899   92.6407   13.5462 C.ar    1  UNL1        0.0057
     35 C          66.5196   92.4322   12.3141 C.ar    1  UNL1        0.0516
@<TRIPOS>BOND
     1    20    21    1
     2    21     8    1
     3     8     9   am
     4     9    10    2
     5     9    11    1
     6    11    12    1
     7    12    13    1
     8    13    14   ar
     9    14    15   ar
    10    15    16   ar
    11    16     7    1
    12     7     1    1
    13     1     2    1
    14     2     3    1
    15     3     4    1
    16     4    22    1
    17    22    23    1
    18    23    24    1
    19    24    25    1
    20    25    26   ar
    21    26    27   ar
    22    27    28   ar
    23    28    29   ar
    24    29    30   ar
    25    30    31   ar
    26    31    32    1
    27    31    33   ar
    28    33    34   ar
    29    34    35   ar
    30     4     5    1
    31     5     6    1
    32    16    17   ar
    33    17    18    1
    34    17    19   ar
    35    19     8    1
    36    19    13   ar
    37     6     1    1
    38    35    25   ar
    39    35    29   ar
@<TRIPOS>MOLECULE
*****
 35 39 0 0 0
SMALL
GASTEIGER

@<TRIPOS>ATOM
      1 N          63.4524   88.3115   15.9122 N.3     1  UNL1       -0.2665
      2 C          64.2394   87.4690   14.9525 C.3     1  UNL1        0.0899
      3 C          64.2806   85.9792   15.1220 C.3     1  UNL1        0.0898
      4 N          63.5347   85.3319   16.2511 N.3     1  UNL1       -0.2672
      5 C          62.7478   86.1744   17.2107 C.3     1  UNL1        0.0898
      6 C          62.7066   87.6642   17.0412 C.3     1  UNL1        0.0899
      7 C          63.4112   89.8014   15.7427 C.3     1  UNL1        0.1015
      8 N          65.9628   93.2390   12.7979 N.am    1  UNL1       -0.2512
      9 C          66.2369   93.8489   11.4552 C.2     1  UNL1        0.2740
     10 O          67.2386   94.9579   11.3255 O.2     1  UNL1       -0.2705
     11 C          65.5091   93.3500   10.2421 C.3     1  UNL1        0.2900
     12 O          64.5074   92.2411   10.3718 O.3     1  UNL1       -0.4643
     13 C          64.2334   91.6312   11.7145 C.ar    1  UNL1        0.1550
     14 C          63.2316   90.5223   11.8442 C.ar    1  UNL1        0.0381
     15 C          62.9576   89.9124   13.1869 C.ar    1  UNL1        0.0025
     16 C          63.6853   90.4113   14.4000 C.ar    1  UNL1        0.0228
     17 C          64.6870   91.5202   14.2703 C.ar    1  UNL1        0.1540
     18 F          65.4147   92.0192   15.4833 F       1  UNL1       -0.2030
     19 C          64.9611   92.1302   12.9275 C.ar    1  UNL1        0.1156
     20 C          67.9854   93.1027   14.4229 C.3     1  UNL1        0.0237
     21 C          66.6906   93.7380   14.0109 C.3     1  UNL1        0.0985
     22 C          63.5759   83.8420   16.4205 C.3     1  UNL1        0.1201
     23 C          63.1431   82.9472   15.2971 C.3     1  UNL1        0.2226
     24 O          62.2579   83.4821   14.2107 O.3     1  UNL1       -0.4739
     25 C          62.6740   83.3577   12.7749 C.ar    1  UNL1        0.1400
     26 C          63.0348   84.5838   11.9897 C.ar    1  UNL1        0.0370
     27 C          63.4509   84.4595   10.5540 C.ar    1  UNL1        0.0047
     28 C          63.5062   83.1091    9.9034 C.ar    1  UNL1        0.0193
     29 C          63.1455   81.8830   10.6886 C.ar    1  UNL1        0.0838
     30 N          63.2009   80.5325   10.0380 N.ar    1  UNL1       -0.2496
     31 C          62.8402   79.3064   10.8232 C.ar    1  UNL1        0.0593
     32 C          62.8955   77.9559   10.1727 C.3     1  UNL1        0.0521
     33 C          62.4241   79.4307   12.2590 C.ar    1  UNL1        0.0148
     34 C          62.3687   80.7812   12.9095 C.ar    1  UNL1        0.0057
     35 C          62.7294   82.0073   12.1244 C.ar    1  UNL1        0.0516
@<TRIPOS>BOND
     1    20    21    1
     2    21     8    1
     3     8     9   am
     4     9    10    2
     5     9    11    1
     6    11    12    1
     7    12    13    1
     8    13    14   ar
     9    14    15   ar
    10    15    16   ar
    11    16     7    1
    12     7     1    1
    13     1     2    1
    14     2     3    1
    15     3     4    1
    16     4    22    1
    17    22    23    1
    18    23    24    1
    19    24    25    1
    20    25    26   ar
    21    26    27   ar
    22    27    28   ar
    23    28    29   ar
    24    29    30   ar
    25    30    31   ar
    26    31    32    1
    27    31    33   ar
    28    33    34   ar
    29    34    35   ar
    30     4     5    1
    31     5     6    1
    32    16    17   ar
    33    17    18    1
    34    17    19   ar
    35    19     8    1
    36    19    13   ar
    37     6     1    1
    38    35    25   ar
    39    35    29   ar
@<TRIPOS>MOLECULE
*****
 35 39 0 0 0
SMALL
GASTEIGER

@<TRIPOS>ATOM
      1 N          59.6216   92.4619    3.9766 N.3     1  UNL1       -0.2665
      2 C          58.2759   92.0607    4.5042 C.3     1  UNL1        0.0899
      3 C          58.1539   90.8915    5.4360 C.3     1  UNL1        0.0898
      4 N          59.3775   90.1236    5.8401 N.3     1  UNL1       -0.2672
      5 C          60.7230   90.5249    5.3125 C.3     1  UNL1        0.0898
      6 C          60.8451   91.6941    4.3807 C.3     1  UNL1        0.0899
      7 C          59.7436   93.6311    3.0448 C.3     1  UNL1        0.1015
      8 N          63.3877   95.2189   -0.3019 N.am    1  UNL1       -0.2512
      9 C          64.1069   95.0642   -1.6091 C.2     1  UNL1        0.2740
     10 O          65.2097   96.0128   -1.9752 O.2     1  UNL1       -0.2705
     11 C          63.7233   93.9609   -2.5501 C.3     1  UNL1        0.2900
     12 O          62.6206   93.0123   -2.1840 O.3     1  UNL1       -0.4643
     13 C          61.9014   93.1670   -0.8769 C.ar    1  UNL1        0.1550
     14 C          60.7986   92.2184   -0.5107 C.ar    1  UNL1        0.0381
     15 C          60.0794   92.3731    0.7965 C.ar    1  UNL1        0.0025
     16 C          60.4629   93.4764    1.7376 C.ar    1  UNL1        0.0228
     17 C          61.5656   94.4250    1.3715 C.ar    1  UNL1        0.1540
     18 F          61.9492   95.5283    2.3125 F       1  UNL1       -0.2030
     19 C          62.2849   94.2703    0.0642 C.ar    1  UNL1        0.1156
     20 C          64.9967   96.1871    1.4935 C.3     1  UNL1        0.0237
     21 C          63.7712   96.3222    0.6392 C.3     1  UNL1        0.0985
     22 C          59.2554   88.9545    6.7719 C.3     1  UNL1        0.1201
     23 C          59.5641   89.1222    8.2302 C.3     1  UNL1        0.2226
     24 O          60.9896   89.1597    8.6956 O.3     1  UNL1       -0.4739
     25 C          61.4836   88.1431    9.6817 C.ar    1  UNL1        0.1400
     26 C          61.1790   86.6888    9.4759 C.ar    1  UNL1        0.0370
     27 C          61.6730   85.6723   10.4621 C.ar    1  UNL1        0.0047
     28 C          62.4715   86.1099   11.6541 C.ar    1  UNL1        0.0193
     29 C          62.7761   87.5642   11.8599 C.ar    1  UNL1        0.0838
     30 N          63.5746   88.0019   13.0519 N.ar    1  UNL1       -0.2496
     31 C          63.8791   89.4562   13.2577 C.ar    1  UNL1        0.0593
     32 C          64.6776   89.8939   14.4497 C.3     1  UNL1        0.0521
     33 C          63.3851   90.4727   12.2715 C.ar    1  UNL1        0.0148
     34 C          62.5866   90.0351   11.0795 C.ar    1  UNL1        0.0057
     35 C          62.2821   88.5808   10.8737 C.ar    1  UNL1        0.0516
@<TRIPOS>BOND
     1    20    21    1
     2    21     8    1
     3     8     9   am
     4     9    10    2
     5     9    11    1
     6    11    12    1
     7    12    13    1
     8    13    14   ar
     9    14    15   ar
    10    15    16   ar
    11    16     7    1
    12     7     1    1
    13     1     2    1
    14     2     3    1
    15     3     4    1
    16     4    22    1
    17    22    23    1
    18    23    24    1
    19    24    25    1
    20    25    26   ar
    21    26    27   ar
    22    27    28   ar
    23    28    29   ar
    24    29    30   ar
    25    30    31   ar
    26    31    32    1
    27    31    33   ar
    28    33    34   ar
    29    34    35   ar
    30     4     5    1
    31     5     6    1
    32    16    17   ar
    33    17    18    1
    34    17    19   ar
    35    19     8    1
    36    19    13   ar
    37     6     1    1
    38    35    25   ar
    39    35    29   ar
@<TRIPOS>MOLECULE
*****
 35 39 0 0 0
SMALL
GASTEIGER

@<TRIPOS>ATOM
      1 N          59.3800   92.3637    3.8826 N.3     1  UNL1       -0.2665
      2 C          58.0962   91.9755    4.5543 C.3     1  UNL1        0.0899
      3 C          58.0786   90.8486    5.5442 C.3     1  UNL1        0.0898
      4 N          59.3448   90.1098    5.8622 N.3     1  UNL1       -0.2672
      5 C          60.6285   90.4980    5.1904 C.3     1  UNL1        0.0898
      6 C          60.6461   91.6249    4.2006 C.3     1  UNL1        0.0899
      7 C          59.3977   93.4906    2.8927 C.3     1  UNL1        0.1015
      8 N          63.4815   95.0936    0.1083 N.am    1  UNL1       -0.2512
      9 C          64.3328   94.9971   -1.1229 C.2     1  UNL1        0.2740
     10 O          65.5235   95.8951   -1.2838 O.2     1  UNL1       -0.2705
     11 C          63.9935   94.0024   -2.1932 C.3     1  UNL1        0.2900
     12 O          62.8029   93.1044   -2.0323 O.3     1  UNL1       -0.4643
     13 C          61.9516   93.2009   -0.8011 C.ar    1  UNL1        0.1550
     14 C          60.7610   92.3029   -0.6401 C.ar    1  UNL1        0.0381
     15 C          59.9097   92.3994    0.5911 C.ar    1  UNL1        0.0025
     16 C          60.2490   93.3940    1.6614 C.ar    1  UNL1        0.0228
     17 C          61.4396   94.2921    1.5005 C.ar    1  UNL1        0.1540
     18 F          61.7789   95.2867    2.5709 F       1  UNL1       -0.2030
     19 C          62.2909   94.1956    0.2692 C.ar    1  UNL1        0.1156
     20 C          64.9934   95.8468    2.0824 C.3     1  UNL1        0.0237
     21 C          63.8209   96.0882    1.1787 C.3     1  UNL1        0.0985
     22 C          59.3271   88.9829    6.8521 C.3     1  UNL1        0.1201
     23 C          59.8591   89.1942    8.2386 C.3     1  UNL1        0.2226
     24 O          60.8826   88.2527    8.8007 O.3     1  UNL1       -0.4739
     25 C          61.6913   88.6525    9.9991 C.ar    1  UNL1        0.1400
     26 C          62.0121   90.0980   10.2392 C.ar    1  UNL1        0.0370
     27 C          62.8208   90.4978   11.4376 C.ar    1  UNL1        0.0047
     28 C          63.3088   89.4520   12.3959 C.ar    1  UNL1        0.0193
     29 C          62.9882   88.0065   12.1557 C.ar    1  UNL1        0.0838
     30 N          63.4762   86.9608   13.1140 N.ar    1  UNL1       -0.2496
     31 C          63.1555   85.5153   12.8738 C.ar    1  UNL1        0.0593
     32 C          63.6436   84.4695   13.8321 C.3     1  UNL1        0.0521
     33 C          62.3468   85.1155   11.6755 C.ar    1  UNL1        0.0148
     34 C          61.8587   86.1612   10.7172 C.ar    1  UNL1        0.0057
     35 C          62.1794   87.6067   10.9573 C.ar    1  UNL1        0.0516
@<TRIPOS>BOND
     1    20    21    1
     2    21     8    1
     3     8     9   am
     4     9    10    2
     5     9    11    1
     6    11    12    1
     7    12    13    1
     8    13    14   ar
     9    14    15   ar
    10    15    16   ar
    11    16     7    1
    12     7     1    1
    13     1     2    1
    14     2     3    1
    15     3     4    1
    16     4    22    1
    17    22    23    1
    18    23    24    1
    19    24    25    1
    20    25    26   ar
    21    26    27   ar
    22    27    28   ar
    23    28    29   ar
    24    29    30   ar
    25    30    31   ar
    26    31    32    1
    27    31    33   ar
    28    33    34   ar
    29    34    35   ar
    30     4     5    1
    31     5     6    1
    32    16    17   ar
    33    17    18    1
    34    17    19   ar
    35    19     8    1
    36    19    13   ar
    37     6     1    1
    38    35    25   ar
    39    35    29   ar
