@<TRIPOS>MOLECULE
*****
 61 68 0 0 0
SMALL
GASTEIGER

@<TRIPOS>ATOM
      1 N          65.3498   89.2044   14.5515 N.3     1  UNL1       -0.1862
      2 C          65.5413   87.9467   15.3461 C.3     1  UNL1        0.1775
      3 C          64.7788   86.7069   14.9834 C.2     1  UNL1        0.2452
      4 O          64.9703   85.4492   15.7781 O.2     1  UNL1       -0.2732
      5 N          63.8249   86.7248   13.8260 N.am    1  UNL1       -0.2541
      6 C          63.0624   85.4850   13.4632 C.3     1  UNL1        0.1577
      7 C          62.1085   85.5029   12.3058 C.2     1  UNL1        0.2445
      8 O          61.3460   84.2632   11.9430 O.2     1  UNL1       -0.2731
      9 N          61.9170   86.7607   11.5111 N.am    1  UNL1       -0.2705
     10 C          62.6795   88.0004   11.8738 C.3     1  UNL1        0.1359
     11 C          63.6334   87.9825   13.0313 C.3     1  UNL1        0.1908
     12 N          64.3959   89.2223   13.3941 N.am    1  UNL1       -0.1863
     13 C          64.2044   90.4800   12.5993 C.2     1  UNL1        0.3191
     14 O          63.2505   90.4979   11.4419 O.2     1  UNL1       -0.2512
     15 N          64.9669   91.7198   12.9621 N.am    1  UNL1       -0.2836
     16 H          65.5930   91.7080   13.7217 H       1  UNL1        0.1513
     17 C          66.1123   90.4441   14.9142 C.3     1  UNL1        0.1188
     18 C          66.2381   92.7284   16.1455 C.2     1  UNL1       -0.0034
     19 C          65.4660   91.5020   15.7587 C.2     1  UNL1       -0.0071
     20 C          63.2539   84.2273   14.2579 C.3     1  UNL1        0.0556
     21 C          63.0857   82.8906   13.5984 C.ar    1  UNL1       -0.0198
     22 C          62.1784   81.8629   14.2071 C.ar    1  UNL1       -0.0011
     23 C          62.0102   80.5261   13.5477 C.ar    1  UNL1        0.0363
     24 C          62.7494   80.2171   12.2796 C.ar    1  UNL1        0.1337
     25 O          62.5812   78.8804   11.6202 O.3     1  UNL1       -0.5055
     26 C          63.6567   81.2449   11.6709 C.ar    1  UNL1        0.0363
     27 C          63.8249   82.5816   12.3303 C.ar    1  UNL1       -0.0011
     28 H          62.0144   78.2384   12.0004 H       1  UNL1        0.2922
     29 C          60.9631   86.7786   10.3537 C.3     1  UNL1        0.1217
     30 C          60.4492   88.0851    9.8254 C.ar    1  UNL1        0.0135
     31 C          60.2653   89.2491   10.7535 C.ar    1  UNL1       -0.0012
     32 C          59.7515   90.5556   10.2253 C.ar    1  UNL1       -0.0002
     33 C          59.4215   90.6981    8.7690 C.ar    1  UNL1        0.0016
     34 C          59.6053   89.5341    7.8409 C.ar    1  UNL1        0.0214
     35 C          59.3663   89.3769    6.3685 C.ar    1  UNL1        0.0721
     36 C          59.7325   87.9733    5.9867 C.ar    1  UNL1        0.0805
     37 N          60.1977   87.2630    7.2231 N.ar    1  UNL1       -0.3241
     38 C          60.6604   85.8382    7.3001 C.3     1  UNL1        0.1305
     39 C          60.1192   88.2276    8.3691 C.ar    1  UNL1        0.0577
     40 C          58.8515   90.4373    5.4407 C.2     1  UNL1        0.2506
     41 O          57.3891   90.7703    5.4202 O.2     1  UNL1       -0.2699
     42 N          59.7991   91.1645    4.5334 N.am    1  UNL1       -0.2732
     43 C          61.2616   90.8314    4.5540 C.3     1  UNL1        0.1110
     44 C          62.2092   91.5586    3.6468 C.3     1  UNL1        0.0940
     45 N          61.6945   92.6190    2.7189 N.3     1  UNL1       -0.2681
     46 C          62.6421   93.3463    1.8117 C.3     1  UNL1        0.0939
     47 C          62.1273   94.4066    0.8839 C.3     1  UNL1        0.1107
     48 N          60.6649   94.7396    0.8634 N.am    1  UNL1       -0.2767
     49 C          60.1502   95.7999   -0.0643 C.2     1  UNL1        0.2262
     50 C          58.6878   96.1330   -0.0848 C.3     1  UNL1        0.0948
     51 O          61.0978   96.5272   -0.9716 O.2     1  UNL1       -0.2749
     52 C          59.7173   94.0124    1.7707 C.3     1  UNL1        0.1111
     53 C          60.2321   92.9521    2.6984 C.3     1  UNL1        0.0975
     54 C          59.2844   92.2248    3.6057 C.3     1  UNL1        0.1114
     55 C          64.7754   92.9775   12.1674 C.3     1  UNL1        0.1177
     56 C          65.8228   93.4106   11.1849 C.ar    1  UNL1       -0.0025
     57 C          65.9022   94.8462   10.7574 C.ar    1  UNL1       -0.0026
     58 C          66.9496   95.2793    9.7749 C.ar    1  UNL1       -0.0003
     59 C          67.9175   94.2768    9.2198 C.ar    1  UNL1       -0.0000
     60 C          67.8381   92.8412    9.6472 C.ar    1  UNL1       -0.0003
     61 C          66.7908   92.4080   10.6298 C.ar    1  UNL1       -0.0026
@<TRIPOS>BOND
     1    18    19    2
     2    19    17    1
     3    17     1    1
     4     1     2    1
     5     2     3    1
     6     3     4    2
     7     3     5   am
     8     5     6    1
     9     6    20    1
    10    20    21    1
    11    21    22   ar
    12    22    23   ar
    13    23    24   ar
    14    24    25    1
    15    24    26   ar
    16    26    27   ar
    17     6     7    1
    18     7     8    2
    19     7     9   am
    20     9    29    1
    21    29    30    1
    22    30    31   ar
    23    31    32   ar
    24    32    33   ar
    25    33    34   ar
    26    34    35   ar
    27    35    40    1
    28    40    41    2
    29    40    42   am
    30    42    43    1
    31    43    44    1
    32    44    45    1
    33    45    46    1
    34    46    47    1
    35    47    48    1
    36    48    49   am
    37    49    50    1
    38    49    51    2
    39    48    52    1
    40    52    53    1
    41    53    54    1
    42    35    36   ar
    43    36    37   ar
    44    37    38    1
    45    37    39   ar
    46     9    10    1
    47    11    10    1
    48    11    12    1
    49    12    13   am
    50    13    14    2
    51    13    15   am
    52    15    55    1
    53    55    56    1
    54    56    57   ar
    55    57    58   ar
    56    58    59   ar
    57    59    60   ar
    58    60    61   ar
    59    12     1    1
    60    61    56   ar
    61    11     5    1
    62    27    21   ar
    63    39    30   ar
    64    39    34   ar
    65    54    42    1
    66    53    45    1
    67    25    28    1
    68    15    16    1
