@<TRIPOS>MOLECULE
*****
 36 38 0 0 0
SMALL
GASTEIGER

@<TRIPOS>ATOM
      1 C          64.6064   89.6620   13.9893 C.ar    1  UNL1       -0.0185
      2 C          65.8077   90.2857   14.6359 C.ar    1  UNL1       -0.0041
      3 C          66.2392   91.6670   14.2415 C.ar    1  UNL1        0.0057
      4 C          65.4695   92.4248   13.2007 C.ar    1  UNL1        0.0696
      5 C          64.2682   91.8012   12.5542 C.ar    1  UNL1        0.0095
      6 C          63.8367   90.4198   12.9485 C.ar    1  UNL1        0.0677
      7 C          62.8801   84.1363   15.5664 C.2     1  UNL1        0.2490
      8 O          62.4758   83.8525   16.9826 O.2     1  UNL1       -0.2699
      9 N          63.3117   85.5177   15.1721 N.am    1  UNL1       -0.2761
     10 C          63.7161   85.8016   13.7558 C.3     1  UNL1        0.0940
     11 C          64.1477   87.1830   13.3616 C.3     1  UNL1        0.0259
     12 C          64.1748   88.2806   14.3836 C.3     1  UNL1        0.0257
     13 C          63.7705   87.9968   15.7999 C.3     1  UNL1        0.0259
     14 C          63.3389   86.6153   16.1942 C.3     1  UNL1        0.0940
     15 C          62.7986   80.8436   12.5002 C.ar    1  UNL1        0.0685
     16 C          63.9777   81.7676   12.5773 C.ar    1  UNL1        0.0104
     17 C          64.0049   82.8652   13.5994 C.ar    1  UNL1        0.0052
     18 C          62.8530   83.0388   14.5443 C.ar    1  UNL1        0.0536
     19 C          61.6739   82.1148   14.4672 C.ar    1  UNL1        0.0052
     20 C          61.6467   81.0172   13.4452 C.ar    1  UNL1        0.0104
     21 N          62.7442   78.6484   10.4561 N.1     1  UNL1       -0.1908
     22 C          62.7714   79.7460   11.4782 C.1     1  UNL1        0.1004
     23 C          65.9011   93.8063   12.8064 C.2     1  UNL1        0.3078
     24 O          66.5302   94.7138   13.8216 O.2     1  UNL1       -0.2516
     25 N          65.7035   94.2801   11.3970 N.am    1  UNL1       -0.1708
     26 H          65.2905   93.6844   10.7308 H       1  UNL1        0.2545
     27 C          66.1351   95.6615   11.0028 C.2     1  UNL1        0.3751
     28 N          65.7135   96.8425   11.8259 N.pl3   1  UNL1       -0.1313
     29 N          66.9883   95.8619    9.7854 N.pl3   1  UNL1       -0.2906
     30 H          65.1535   96.7110   12.6249 H       1  UNL1        0.3060
     31 H          67.2650   95.0868    9.2452 H       1  UNL1        0.2545
     32 H          67.2715   96.7686    9.5267 H       1  UNL1        0.2545
     33 C          62.6354   89.7961   12.3020 C.3     1  UNL1        0.4183
     34 F          61.4341   89.1724   11.6555 F       1  UNL1       -0.1659
     35 F          61.8380   90.0396   13.5488 F       1  UNL1       -0.1659
     36 F          63.4328   89.5526   11.0551 F       1  UNL1       -0.1659
@<TRIPOS>BOND
     1    21    22    3
     2    22    15    1
     3    15    16   ar
     4    16    17   ar
     5    17    18   ar
     6    18     7    1
     7     7     8    2
     8     7     9   am
     9     9    10    1
    10    10    11    1
    11    11    12    1
    12    12     1    1
    13     1     2   ar
    14     2     3   ar
    15     3     4   ar
    16     4    23    1
    17    23    24    2
    18    23    25   am
    19    25    27    1
    20    27    28    2
    21    27    29    1
    22     4     5   ar
    23     5     6   ar
    24     6    33    1
    25    33    34    1
    26    33    35    1
    27    33    36    1
    28    12    13    1
    29    13    14    1
    30    18    19   ar
    31    19    20   ar
    32    20    15   ar
    33    14     9    1
    34     6     1   ar
    35    25    26    1
    36    28    30    1
    37    29    31    1
    38    29    32    1
@<TRIPOS>MOLECULE
*****
 36 38 0 0 0
SMALL
GASTEIGER

@<TRIPOS>ATOM
      1 C          62.0682   93.1190    1.8080 C.ar    1  UNL1       -0.0185
      2 C          63.3835   93.7242    2.1998 C.ar    1  UNL1       -0.0041
      3 C          64.2384   94.3944    1.1654 C.ar    1  UNL1        0.0057
      4 C          63.7780   94.4593   -0.2607 C.ar    1  UNL1        0.0696
      5 C          62.4626   93.8541   -0.6524 C.ar    1  UNL1        0.0095
      6 C          61.6077   93.1840    0.3819 C.ar    1  UNL1        0.0677
      7 C          58.6483   90.4383    5.9455 C.2     1  UNL1        0.2490
      8 O          57.1804   90.7388    6.0145 O.2     1  UNL1       -0.2699
      9 N          59.5032   91.1085    4.9112 N.am    1  UNL1       -0.2761
     10 C          60.9712   90.8079    4.8421 C.3     1  UNL1        0.0940
     11 C          61.8262   91.4781    3.8078 C.3     1  UNL1        0.0259
     12 C          61.2131   92.4488    2.8424 C.3     1  UNL1        0.0257
     13 C          59.7452   92.7494    2.9114 C.3     1  UNL1        0.0259
     14 C          58.8902   92.0792    3.9458 C.3     1  UNL1        0.0940
     15 C          60.4873   87.5262    8.8416 C.ar    1  UNL1        0.0685
     16 C          59.6749   87.0225    7.6857 C.ar    1  UNL1        0.0104
     17 C          59.0619   87.9932    6.7203 C.ar    1  UNL1        0.0052
     18 C          59.2613   89.4676    6.9109 C.ar    1  UNL1        0.0536
     19 C          60.0737   89.9713    8.0668 C.ar    1  UNL1        0.0052
     20 C          60.6867   89.0005    9.0322 C.ar    1  UNL1        0.0104
     21 N          61.7133   85.5847   10.7723 N.1     1  UNL1       -0.1908
     22 C          61.1003   86.5554    9.8070 C.1     1  UNL1        0.1004
     23 C          64.6330   95.1295   -1.2951 C.2     1  UNL1        0.3078
     24 O          65.8555   95.8921   -0.8781 O.2     1  UNL1       -0.2516
     25 N          64.2655   95.0371   -2.7464 N.am    1  UNL1       -0.1708
     26 H          63.4631   94.5366   -3.0201 H       1  UNL1        0.2545
     27 C          65.1205   95.7073   -3.7807 C.2     1  UNL1        0.3751
     28 N          66.0080   96.8525   -3.3926 N.pl3   1  UNL1       -0.1313
     29 N          65.0879   95.2322   -5.2031 N.pl3   1  UNL1       -0.2906
     30 H          66.0294   97.1644   -2.4590 H       1  UNL1        0.3060
     31 H          64.5054   94.4805   -5.4579 H       1  UNL1        0.2545
     32 H          65.6491   95.6720   -5.8820 H       1  UNL1        0.2545
     33 C          60.2923   92.5787   -0.0098 C.3     1  UNL1        0.4183
     34 F          58.9769   91.9735   -0.4015 F       1  UNL1       -0.1659
     35 F          60.9237   91.2183   -0.0280 F       1  UNL1       -0.1659
     36 F          59.6608   93.9392    0.0085 F       1  UNL1       -0.1659
@<TRIPOS>BOND
     1    21    22    3
     2    22    15    1
     3    15    16   ar
     4    16    17   ar
     5    17    18   ar
     6    18     7    1
     7     7     8    2
     8     7     9   am
     9     9    10    1
    10    10    11    1
    11    11    12    1
    12    12     1    1
    13     1     2   ar
    14     2     3   ar
    15     3     4   ar
    16     4    23    1
    17    23    24    2
    18    23    25   am
    19    25    27    1
    20    27    28    2
    21    27    29    1
    22     4     5   ar
    23     5     6   ar
    24     6    33    1
    25    33    34    1
    26    33    35    1
    27    33    36    1
    28    12    13    1
    29    13    14    1
    30    18    19   ar
    31    19    20   ar
    32    20    15   ar
    33    14     9    1
    34     6     1   ar
    35    25    26    1
    36    28    30    1
    37    29    31    1
    38    29    32    1
