@<TRIPOS>MOLECULE
*****
 40 44 0 0 0
SMALL
GASTEIGER

@<TRIPOS>ATOM
      1 N          63.7365   86.6886   13.5185 N.ar    1  UNL1       -0.3063
      2 C          62.9141   85.7414   12.6961 C.ar    1  UNL1        0.1240
      3 C          62.3304   86.5107   11.5482 C.ar    1  UNL1        0.1156
      4 C          62.7921   87.9334   11.6613 C.ar    1  UNL1        0.0966
      5 C          63.6611   88.0434   12.8789 C.ar    1  UNL1        0.1349
      6 C          64.2715   89.3629   13.2480 C.ar    1  UNL1        0.2819
      7 O          65.1405   89.4729   14.4656 O.2     1  UNL1       -0.2652
      8 N          64.0129   90.5724   12.3994 N.ar    1  UNL1       -0.2400
      9 C          63.1438   90.4625   11.1817 C.ar    1  UNL1        0.3343
     10 O          62.8852   91.6720   10.3332 O.2     1  UNL1       -0.2462
     11 N          62.5334   89.1429   10.8127 N.ar    1  UNL1       -0.2770
     12 C          61.6644   89.0329    9.5950 C.3     1  UNL1        0.1351
     13 N          62.7109   84.2812   12.9729 N.pl3   1  UNL1       -0.2926
     14 C          62.2077   83.8349   14.3136 C.3     1  UNL1        0.0922
     15 C          62.0046   82.3747   14.5904 C.3     1  UNL1        0.0229
     16 C          62.3048   81.3609   13.5264 C.3     1  UNL1        0.0190
     17 C          62.8080   81.8071   12.1857 C.3     1  UNL1        0.0709
     18 N          63.1081   80.7933   11.1218 N.3     1  UNL1       -0.3208
     19 C          63.0111   83.2673   11.9089 C.3     1  UNL1        0.1075
     20 H          62.9147   79.8578   11.4793 H       1  UNL1        0.1189
     21 H          64.0908   80.8595   10.8566 H       1  UNL1        0.1189
     22 C          61.4411   85.9549   10.4757 C.1     1  UNL1        0.1047
     23 N          60.5519   85.3991    9.4031 N.1     1  UNL1       -0.1907
     24 C          64.5002   86.3421   14.7621 C.3     1  UNL1        0.1332
     25 C          62.4155   86.5035   18.1352 C.3     1  UNL1        0.0261
     26 C          63.1493   86.9357   16.9004 C.2     1  UNL1       -0.0460
     27 C          63.2659   88.3941   16.5692 C.3     1  UNL1        0.0261
     28 C          63.7664   85.9098   15.9968 C.2     1  UNL1       -0.0102
     29 C          64.6233   91.8920   12.7685 C.3     1  UNL1        0.1791
     30 C          65.4708   92.6303   11.7752 C.ar    1  UNL1        0.1617
     31 N          66.7170   91.9950   11.2337 N.ar    1  UNL1       -0.2330
     32 C          67.5646   92.7332   10.2405 C.ar    1  UNL1        0.0622
     33 C          68.8108   92.0979    9.6990 C.3     1  UNL1        0.0522
     34 C          67.1659   94.1069    9.7886 C.ar    1  UNL1        0.0313
     35 C          68.0134   94.8452    8.7954 C.ar    1  UNL1        0.0027
     36 C          67.6147   96.2188    8.3436 C.ar    1  UNL1        0.0001
     37 C          66.3685   96.8542    8.8851 C.ar    1  UNL1        0.0015
     38 C          65.5210   96.1159    9.8784 C.ar    1  UNL1        0.0192
     39 C          65.9197   94.7423   10.3301 C.ar    1  UNL1        0.0838
     40 N          65.0721   94.0040   11.3235 N.ar    1  UNL1       -0.2287
@<TRIPOS>BOND
     1    25    26    1
     2    26    27    1
     3    26    28    2
     4    28    24    1
     5    24     1    1
     6     1     2   ar
     7     2    13    1
     8    13    14    1
     9    14    15    1
    10    15    16    1
    11    16    17    1
    12    17    18    1
    13    17    19    1
    14     2     3   ar
    15     3    22    1
    16    22    23    3
    17     3     4   ar
    18     4     5   ar
    19     5     6   ar
    20     6     7    2
    21     6     8   ar
    22     8    29    1
    23    29    30    1
    24    30    31   ar
    25    31    32   ar
    26    32    33    1
    27    32    34   ar
    28    34    35   ar
    29    35    36   ar
    30    36    37   ar
    31    37    38   ar
    32    38    39   ar
    33    39    40   ar
    34     8     9   ar
    35     9    10    2
    36     9    11   ar
    37    11    12    1
    38     5     1   ar
    39    40    30   ar
    40    19    13    1
    41    11     4   ar
    42    39    34   ar
    43    18    20    1
    44    18    21    1
@<TRIPOS>MOLECULE
*****
 40 44 0 0 0
SMALL
GASTEIGER

@<TRIPOS>ATOM
      1 N          63.4722   85.9523   12.7692 N.ar    1  UNL1       -0.3063
      2 C          62.8487   85.1018   11.7025 C.ar    1  UNL1        0.1240
      3 C          62.1716   86.0119   10.7209 C.ar    1  UNL1        0.1156
      4 C          62.3768   87.4247   11.1811 C.ar    1  UNL1        0.0966
      5 C          63.1806   87.3879   12.4469 C.ar    1  UNL1        0.1349
      6 C          63.5432   88.6664   13.1426 C.ar    1  UNL1        0.2819
      7 O          64.3470   88.6296   14.4085 O.2     1  UNL1       -0.2652
      8 N          63.1019   89.9817   12.5725 N.ar    1  UNL1       -0.2400
      9 C          62.2980   90.0186   11.3065 C.ar    1  UNL1        0.3343
     10 O          61.8568   91.3339   10.7363 O.2     1  UNL1       -0.2462
     11 N          61.9355   88.7401   10.6108 N.ar    1  UNL1       -0.2770
     12 C          61.1317   88.7769    9.3450 C.3     1  UNL1        0.1351
     13 N          62.8941   83.6042   11.6300 N.pl3   1  UNL1       -0.2926
     14 C          63.5592   82.9295   10.4671 C.3     1  UNL1        0.0922
     15 C          63.6046   81.4320   10.3947 C.3     1  UNL1        0.0229
     16 C          62.9849   80.6092   11.4851 C.3     1  UNL1        0.0190
     17 C          62.3198   81.2839   12.6480 C.3     1  UNL1        0.0709
     18 N          61.7001   80.4612   13.7384 N.3     1  UNL1       -0.3208
     19 C          62.2744   82.7815   12.7204 C.3     1  UNL1        0.1075
     20 H          61.8226   79.4706   13.5283 H       1  UNL1        0.1189
     21 H          60.7047   80.6747   13.8015 H       1  UNL1        0.1189
     22 C          61.4212   85.5842    9.4946 C.1     1  UNL1        0.1047
     23 N          60.6707   85.1565    8.2682 N.1     1  UNL1       -0.1907
     24 C          64.2508   85.4545   13.9507 C.3     1  UNL1        0.1332
     25 C          62.8794   86.2268   17.5939 C.3     1  UNL1        0.0261
     26 C          63.0536   85.5770   16.2533 C.2     1  UNL1       -0.0460
     27 C          62.2046   84.3997   15.8745 C.3     1  UNL1        0.0261
     28 C          64.0766   86.1043   15.2914 C.2     1  UNL1       -0.0102
     29 C          63.4645   91.2602   13.2682 C.3     1  UNL1        0.1791
     30 C          64.9063   91.6223   13.4685 C.ar    1  UNL1        0.1617
     31 N          65.8337   91.6879   12.2913 N.ar    1  UNL1       -0.2330
     32 C          67.2754   92.0499   12.4917 C.ar    1  UNL1        0.0622
     33 C          68.2028   92.1156   11.3145 C.3     1  UNL1        0.0522
     34 C          67.7899   92.3463   13.8692 C.ar    1  UNL1        0.0313
     35 C          69.2317   92.7083   14.0695 C.ar    1  UNL1        0.0027
     36 C          69.7462   93.0047   15.4470 C.ar    1  UNL1        0.0001
     37 C          68.8188   92.9390   16.6241 C.ar    1  UNL1        0.0015
     38 C          67.3770   92.5770   16.4238 C.ar    1  UNL1        0.0192
     39 C          66.8626   92.2807   15.0464 C.ar    1  UNL1        0.0838
     40 N          65.4207   91.9186   14.8460 N.ar    1  UNL1       -0.2287
@<TRIPOS>BOND
     1    25    26    1
     2    26    27    1
     3    26    28    2
     4    28    24    1
     5    24     1    1
     6     1     2   ar
     7     2    13    1
     8    13    14    1
     9    14    15    1
    10    15    16    1
    11    16    17    1
    12    17    18    1
    13    17    19    1
    14     2     3   ar
    15     3    22    1
    16    22    23    3
    17     3     4   ar
    18     4     5   ar
    19     5     6   ar
    20     6     7    2
    21     6     8   ar
    22     8    29    1
    23    29    30    1
    24    30    31   ar
    25    31    32   ar
    26    32    33    1
    27    32    34   ar
    28    34    35   ar
    29    35    36   ar
    30    36    37   ar
    31    37    38   ar
    32    38    39   ar
    33    39    40   ar
    34     8     9   ar
    35     9    10    2
    36     9    11   ar
    37    11    12    1
    38     5     1   ar
    39    40    30   ar
    40    19    13    1
    41    11     4   ar
    42    39    34   ar
    43    18    20    1
    44    18    21    1
@<TRIPOS>MOLECULE
*****
 40 44 0 0 0
SMALL
GASTEIGER

@<TRIPOS>ATOM
      1 N          62.7696   86.4806   11.3301 N.ar    1  UNL1       -0.3063
      2 C          63.1069   85.5207   12.4323 C.ar    1  UNL1        0.1240
      3 C          63.6118   86.3150   13.6003 C.ar    1  UNL1        0.1156
      4 C          63.5866   87.7657   13.2199 C.ar    1  UNL1        0.0966
      5 C          63.0661   87.8681   11.8169 C.ar    1  UNL1        0.1349
      6 C          62.9293   89.2115   11.1638 C.ar    1  UNL1        0.2819
      7 O          62.4089   89.3139    9.7608 O.2     1  UNL1       -0.2652
      8 N          63.3130   90.4526   11.9138 N.ar    1  UNL1       -0.2400
      9 C          63.8336   90.3502   13.3169 C.ar    1  UNL1        0.3343
     10 O          64.2173   91.5912   14.0669 O.2     1  UNL1       -0.2462
     11 N          63.9703   89.0068   13.9700 N.ar    1  UNL1       -0.2770
     12 C          64.4908   88.9044   15.3730 C.3     1  UNL1        0.1351
     13 N          62.9643   84.0285   12.3763 N.pl3   1  UNL1       -0.2926
     14 C          63.4226   83.2763   11.1622 C.3     1  UNL1        0.0922
     15 C          63.2800   81.7842   11.1063 C.3     1  UNL1        0.0229
     16 C          62.6791   81.0443   12.2645 C.3     1  UNL1        0.0190
     17 C          62.2208   81.7965   13.4786 C.3     1  UNL1        0.0709
     18 N          61.6199   81.0565   14.6368 N.3     1  UNL1       -0.3208
     19 C          62.3634   83.2886   13.5345 C.3     1  UNL1        0.1075
     20 H          61.6006   80.0581   14.4292 H       1  UNL1        0.1189
     21 H          60.6690   81.3891   14.7962 H       1  UNL1        0.1189
     22 C          64.0628   85.7565   14.9174 C.1     1  UNL1        0.1047
     23 N          64.5137   85.1980   16.2345 N.1     1  UNL1       -0.1907
     24 C          62.2306   86.1169    9.9784 C.3     1  UNL1        0.1332
     25 C          58.9668   86.6950    7.7958 C.3     1  UNL1        0.0261
     26 C          60.3352   86.2371    8.2055 C.2     1  UNL1       -0.0460
     27 C          61.1766   85.4415    7.2520 C.3     1  UNL1        0.0261
     28 C          60.8622   86.5748    9.5687 C.2     1  UNL1       -0.0102
     29 C          63.1763   91.7960   11.2608 C.3     1  UNL1        0.1791
     30 C          64.3955   92.5185   10.7690 C.ar    1  UNL1        0.1617
     31 N          65.7054   91.7949   10.6659 N.ar    1  UNL1       -0.2330
     32 C          66.9245   92.5173   10.1741 C.ar    1  UNL1        0.0622
     33 C          68.2344   91.7938   10.0710 C.3     1  UNL1        0.0522
     34 C          66.8337   93.9633    9.7854 C.ar    1  UNL1        0.0313
     35 C          68.0529   94.6856    9.2937 C.ar    1  UNL1        0.0027
     36 C          67.9621   96.1315    8.9050 C.ar    1  UNL1        0.0001
     37 C          66.6521   96.8550    9.0081 C.ar    1  UNL1        0.0015
     38 C          65.4330   96.1327    9.4998 C.ar    1  UNL1        0.0192
     39 C          65.5238   94.6868    9.8885 C.ar    1  UNL1        0.0838
     40 N          64.3047   93.9643   10.3803 N.ar    1  UNL1       -0.2287
@<TRIPOS>BOND
     1    25    26    1
     2    26    27    1
     3    26    28    2
     4    28    24    1
     5    24     1    1
     6     1     2   ar
     7     2    13    1
     8    13    14    1
     9    14    15    1
    10    15    16    1
    11    16    17    1
    12    17    18    1
    13    17    19    1
    14     2     3   ar
    15     3    22    1
    16    22    23    3
    17     3     4   ar
    18     4     5   ar
    19     5     6   ar
    20     6     7    2
    21     6     8   ar
    22     8    29    1
    23    29    30    1
    24    30    31   ar
    25    31    32   ar
    26    32    33    1
    27    32    34   ar
    28    34    35   ar
    29    35    36   ar
    30    36    37   ar
    31    37    38   ar
    32    38    39   ar
    33    39    40   ar
    34     8     9   ar
    35     9    10    2
    36     9    11   ar
    37    11    12    1
    38     5     1   ar
    39    40    30   ar
    40    19    13    1
    41    11     4   ar
    42    39    34   ar
    43    18    20    1
    44    18    21    1
