@<TRIPOS>MOLECULE
*****
 42 46 0 0 0
SMALL
GASTEIGER

@<TRIPOS>ATOM
      1 C          59.4934   92.3718    4.0651 C.3     1  UNL1        0.0758
      2 C          60.6278   91.5585    4.6143 C.3     1  UNL1        0.0370
      3 C          60.3491   90.4131    5.5419 C.3     1  UNL1        0.0741
      4 N          58.9361   90.0811    5.9203 N.3     1  UNL1       -0.2688
      5 C          57.8018   90.8945    5.3712 C.3     1  UNL1        0.0741
      6 C          58.0804   92.0398    4.4436 C.3     1  UNL1        0.0370
      7 N          60.6127   94.4019    0.8439 N.am    1  UNL1       -0.2849
      8 C          60.3341   93.2565    1.7715 C.2     1  UNL1        0.3010
      9 O          60.6176   91.8503    1.3331 O.2     1  UNL1       -0.2528
     10 N          59.7720   93.5173    3.1375 N.am    1  UNL1       -0.2905
     11 H          60.4266   95.3248    1.1316 H       1  UNL1        0.1513
     12 H          59.5859   94.4402    3.4252 H       1  UNL1        0.1509
     13 C          61.1748   94.1411   -0.5221 C.3     1  UNL1        0.1181
     14 C          60.2521   93.8763   -1.6748 C.ar    1  UNL1       -0.0026
     15 C          60.4519   94.5954   -2.9760 C.ar    1  UNL1       -0.0026
     16 C          59.5293   94.3306   -4.1286 C.ar    1  UNL1       -0.0003
     17 C          58.4068   93.3467   -3.9801 C.ar    1  UNL1       -0.0000
     18 C          58.2070   92.6277   -2.6790 C.ar    1  UNL1       -0.0003
     19 C          59.1297   92.8924   -1.5263 C.ar    1  UNL1       -0.0026
     20 C          62.6595   94.1451   -0.7355 C.3     1  UNL1        0.1312
     21 C          63.9260   92.6735    1.8875 C.3     1  UNL1        0.0718
     22 C          64.1438   94.1026    1.4871 C.ar    1  UNL1        0.1209
     23 N          64.9821   95.1061    2.2221 N.ar    1  UNL1       -0.2293
     24 C          64.9179   96.4028    1.4707 C.ar    1  UNL1        0.1188
     25 C          64.0401   96.2006    0.2713 C.ar    1  UNL1        0.0978
     26 N          63.5617   94.7790    0.2814 N.ar    1  UNL1       -0.3116
     27 C          58.6575   88.9357    6.8480 C.3     1  UNL1        0.1007
     28 C          59.6581   88.5634    7.9016 C.ar    1  UNL1        0.0129
     29 C          60.2826   89.4987    8.8942 C.ar    1  UNL1        0.0176
     30 C          61.2204   88.7039    9.7537 C.ar    1  UNL1        0.0799
     31 N          61.1755   87.2772    9.2923 N.ar    1  UNL1       -0.3038
     32 C          60.2100   87.1905    8.1477 C.ar    1  UNL1        0.0772
     33 C          61.9586   86.1376    9.8735 C.ar    1  UNL1        0.0640
     34 C          62.8249   85.2933    8.9866 C.ar    1  UNL1        0.0175
     35 C          63.6080   84.1537    9.5678 C.ar    1  UNL1        0.0053
     36 C          63.5249   83.8582   11.0360 C.ar    1  UNL1        0.0715
     37 C          62.6586   84.7025   11.9231 C.ar    1  UNL1        0.0053
     38 C          61.8755   85.8421   11.3418 C.ar    1  UNL1        0.0175
     39 C          64.3080   82.7186   11.6172 C.3     1  UNL1        0.4186
     40 F          65.0911   81.5788   12.1984 F       1  UNL1       -0.1659
     41 F          64.5928   83.5383   12.8407 F       1  UNL1       -0.1659
     42 F          64.0231   81.8988   10.3937 F       1  UNL1       -0.1659
@<TRIPOS>BOND
     1    21    22    1
     2    22    23   ar
     3    23    24   ar
     4    24    25   ar
     5    25    26   ar
     6    26    20    1
     7    20    13    1
     8    13     7    1
     9     7     8   am
    10     8     9    2
    11     8    10   am
    12    10     1    1
    13     1     2    1
    14     2     3    1
    15     3     4    1
    16     4    27    1
    17    27    28    1
    18    28    29   ar
    19    29    30   ar
    20    30    31   ar
    21    31    33    1
    22    33    34   ar
    23    34    35   ar
    24    35    36   ar
    25    36    39    1
    26    39    40    1
    27    39    41    1
    28    39    42    1
    29    36    37   ar
    30    37    38   ar
    31    31    32   ar
    32     4     5    1
    33     5     6    1
    34    13    14    1
    35    14    15   ar
    36    15    16   ar
    37    16    17   ar
    38    17    18   ar
    39    18    19   ar
    40    26    22   ar
    41     6     1    1
    42    19    14   ar
    43    32    28   ar
    44    38    33   ar
    45     7    11    1
    46    10    12    1
@<TRIPOS>MOLECULE
*****
 42 46 0 0 0
SMALL
GASTEIGER

@<TRIPOS>ATOM
      1 C          61.8800   87.8532    9.8986 C.3     1  UNL1        0.0758
      2 C          61.3196   86.8452    8.9394 C.3     1  UNL1        0.0370
      3 C          60.2345   87.2426    7.9830 C.3     1  UNL1        0.0741
      4 N          59.7100   88.6479    7.9857 N.3     1  UNL1       -0.2688
      5 C          60.2704   89.6558    8.9448 C.3     1  UNL1        0.0741
      6 C          61.3554   89.2584    9.9013 C.3     1  UNL1        0.0370
      7 N          63.7657   86.0630   12.8969 N.am    1  UNL1       -0.2849
      8 C          62.6806   86.4604   11.9404 C.2     1  UNL1        0.3010
      9 O          61.3111   85.8622   12.0694 O.2     1  UNL1       -0.2528
     10 N          62.9651   87.4558   10.8550 N.am    1  UNL1       -0.2905
     11 H          64.6646   86.4556   12.8123 H       1  UNL1        0.1513
     12 H          63.8639   87.8484   10.7704 H       1  UNL1        0.1509
     13 C          63.4812   85.0676   13.9823 C.3     1  UNL1        0.1181
     14 C          63.0630   83.6712   13.6285 C.ar    1  UNL1       -0.0026
     15 C          62.2173   82.8777   14.5799 C.ar    1  UNL1       -0.0026
     16 C          61.7991   81.4814   14.2261 C.ar    1  UNL1       -0.0003
     17 C          62.2266   80.8784   12.9208 C.ar    1  UNL1       -0.0000
     18 C          63.0722   81.6719   11.9694 C.ar    1  UNL1       -0.0003
     19 C          63.4905   83.0683   12.3232 C.ar    1  UNL1       -0.0026
     20 C          63.6150   85.4685   15.4215 C.3     1  UNL1        0.1312
     21 C          62.5311   86.6606   18.2595 C.3     1  UNL1        0.0718
     22 C          63.0596   87.4655   17.1093 C.ar    1  UNL1        0.1209
     23 N          63.1827   88.9596   17.0618 N.ar    1  UNL1       -0.2293
     24 C          63.7570   89.3351   15.7278 C.ar    1  UNL1        0.1188
     25 C          63.9888   88.0730   14.9511 C.ar    1  UNL1        0.0978
     26 N          63.5578   86.9175   15.8049 N.ar    1  UNL1       -0.3116
     27 C          58.6249   89.0452    7.0292 C.3     1  UNL1        0.1007
     28 C          58.8846   90.1027    5.9976 C.ar    1  UNL1        0.0129
     29 C          57.8831   91.0895    5.4751 C.ar    1  UNL1        0.0176
     30 C          58.5710   91.9557    4.4619 C.ar    1  UNL1        0.0799
     31 N          59.9977   91.5042    4.3583 N.ar    1  UNL1       -0.3038
     32 C          60.1915   90.3590    5.3074 C.ar    1  UNL1        0.0772
     33 C          61.0464   92.0944    3.4628 C.ar    1  UNL1        0.0640
     34 C          60.7100   93.2598    2.5806 C.ar    1  UNL1        0.0175
     35 C          61.7587   93.8500    1.6851 C.ar    1  UNL1        0.0053
     36 C          63.1438   93.2746    1.6718 C.ar    1  UNL1        0.0715
     37 C          63.4803   92.1091    2.5540 C.ar    1  UNL1        0.0053
     38 C          62.4316   91.5189    3.4495 C.ar    1  UNL1        0.0175
     39 C          64.1925   93.8647    0.7763 C.3     1  UNL1        0.4186
     40 F          65.2413   94.4548   -0.1192 F       1  UNL1       -0.1659
     41 F          63.3550   95.0976    0.6079 F       1  UNL1       -0.1659
     42 F          65.0302   92.6318    0.9447 F       1  UNL1       -0.1659
@<TRIPOS>BOND
     1    21    22    1
     2    22    23   ar
     3    23    24   ar
     4    24    25   ar
     5    25    26   ar
     6    26    20    1
     7    20    13    1
     8    13     7    1
     9     7     8   am
    10     8     9    2
    11     8    10   am
    12    10     1    1
    13     1     2    1
    14     2     3    1
    15     3     4    1
    16     4    27    1
    17    27    28    1
    18    28    29   ar
    19    29    30   ar
    20    30    31   ar
    21    31    33    1
    22    33    34   ar
    23    34    35   ar
    24    35    36   ar
    25    36    39    1
    26    39    40    1
    27    39    41    1
    28    39    42    1
    29    36    37   ar
    30    37    38   ar
    31    31    32   ar
    32     4     5    1
    33     5     6    1
    34    13    14    1
    35    14    15   ar
    36    15    16   ar
    37    16    17   ar
    38    17    18   ar
    39    18    19   ar
    40    26    22   ar
    41     6     1    1
    42    19    14   ar
    43    32    28   ar
    44    38    33   ar
    45     7    11    1
    46    10    12    1
@<TRIPOS>MOLECULE
*****
 42 46 0 0 0
SMALL
GASTEIGER

@<TRIPOS>ATOM
      1 C          61.7605   86.5057    8.9280 C.3     1  UNL1        0.0758
      2 C          60.7731   86.0080    7.9144 C.3     1  UNL1        0.0370
      3 C          59.6980   86.9207    7.4037 C.3     1  UNL1        0.0741
      4 N          59.6102   88.3312    7.9065 N.3     1  UNL1       -0.2688
      5 C          60.5975   88.8289    8.9201 C.3     1  UNL1        0.0741
      6 C          61.6727   87.9162    9.4308 C.3     1  UNL1        0.0370
      7 N          63.8761   84.2019   11.3708 N.am    1  UNL1       -0.2849
      8 C          62.8008   85.1147   10.8600 C.2     1  UNL1        0.3010
      9 O          61.6908   85.5492   11.7706 O.2     1  UNL1       -0.2528
     10 N          62.8357   85.5929    9.4388 N.am    1  UNL1       -0.2905
     11 H          64.6046   83.9167   10.7732 H       1  UNL1        0.1513
     12 H          63.5642   85.3077    8.8411 H       1  UNL1        0.1509
     13 C          63.8412   83.7237   12.7921 C.3     1  UNL1        0.1181
     14 C          63.0729   82.4856   13.1481 C.ar    1  UNL1       -0.0026
     15 C          63.5936   81.1378   12.7450 C.ar    1  UNL1       -0.0026
     16 C          62.8252   79.8998   13.1011 C.ar    1  UNL1       -0.0003
     17 C          61.5362   80.0094   13.8603 C.ar    1  UNL1       -0.0000
     18 C          61.0155   81.3571   14.2634 C.ar    1  UNL1       -0.0003
     19 C          61.7838   82.5953   13.9073 C.ar    1  UNL1       -0.0026
     20 C          64.5747   84.4835   13.8573 C.3     1  UNL1        0.1312
     21 C          64.5367   87.6820   14.5036 C.3     1  UNL1        0.0718
     22 C          63.7942   86.6207   15.2601 C.ar    1  UNL1        0.1209
     23 N          62.9039   86.8433   16.4466 N.ar    1  UNL1       -0.2293
     24 C          62.3711   85.5106   16.8828 C.ar    1  UNL1        0.1188
     25 C          62.9322   84.4645   15.9659 C.ar    1  UNL1        0.0978
     26 N          63.8117   85.1505   14.9630 N.ar    1  UNL1       -0.3116
     27 C          58.5350   89.2440    7.3957 C.3     1  UNL1        0.1007
     28 C          58.8145   90.1597    6.2411 C.ar    1  UNL1        0.0129
     29 C          57.8005   90.9818    5.5022 C.ar    1  UNL1        0.0176
     30 C          58.5165   91.7442    4.4270 C.ar    1  UNL1        0.0799
     31 N          59.9730   91.3934    4.5014 N.ar    1  UNL1       -0.3038
     32 C          60.1572   90.4141    5.6225 C.ar    1  UNL1        0.0772
     33 C          61.0553   91.9281    3.6109 C.ar    1  UNL1        0.0640
     34 C          60.7807   93.1020    2.7186 C.ar    1  UNL1        0.0175
     35 C          61.8629   93.6366    1.8282 C.ar    1  UNL1        0.0053
     36 C          63.2198   92.9973    1.8301 C.ar    1  UNL1        0.0715
     37 C          63.4945   91.8233    2.7225 C.ar    1  UNL1        0.0053
     38 C          62.4122   91.2887    3.6129 C.ar    1  UNL1        0.0175
     39 C          64.3020   93.5319    0.9397 C.3     1  UNL1        0.4186
     40 F          65.3843   94.0665    0.0492 F       1  UNL1       -0.1659
     41 F          65.0873   93.9524    2.1465 F       1  UNL1       -0.1659
     42 F          63.5168   93.1114   -0.2673 F       1  UNL1       -0.1659
@<TRIPOS>BOND
     1    21    22    1
     2    22    23   ar
     3    23    24   ar
     4    24    25   ar
     5    25    26   ar
     6    26    20    1
     7    20    13    1
     8    13     7    1
     9     7     8   am
    10     8     9    2
    11     8    10   am
    12    10     1    1
    13     1     2    1
    14     2     3    1
    15     3     4    1
    16     4    27    1
    17    27    28    1
    18    28    29   ar
    19    29    30   ar
    20    30    31   ar
    21    31    33    1
    22    33    34   ar
    23    34    35   ar
    24    35    36   ar
    25    36    39    1
    26    39    40    1
    27    39    41    1
    28    39    42    1
    29    36    37   ar
    30    37    38   ar
    31    31    32   ar
    32     4     5    1
    33     5     6    1
    34    13    14    1
    35    14    15   ar
    36    15    16   ar
    37    16    17   ar
    38    17    18   ar
    39    18    19   ar
    40    26    22   ar
    41     6     1    1
    42    19    14   ar
    43    32    28   ar
    44    38    33   ar
    45     7    11    1
    46    10    12    1
@<TRIPOS>MOLECULE
*****
 42 46 0 0 0
SMALL
GASTEIGER

@<TRIPOS>ATOM
      1 C          61.9369   89.4665   10.8237 C.3     1  UNL1        0.0758
      2 C          62.0841   88.2493    9.9596 C.3     1  UNL1        0.0370
      3 C          61.1530   88.0333    8.8035 C.3     1  UNL1        0.0741
      4 N          60.0749   89.0345    8.5117 N.3     1  UNL1       -0.2688
      5 C          59.9277   90.2516    9.3758 C.3     1  UNL1        0.0741
      6 C          60.8587   90.4676   10.5319 C.3     1  UNL1        0.0370
      7 N          64.7547   91.0546   13.1234 N.am    1  UNL1       -0.2849
      8 C          63.8236   90.8386   11.9673 C.2     1  UNL1        0.3010
      9 O          63.8483   91.7786   10.7987 O.2     1  UNL1       -0.2528
     10 N          62.8680   89.6825   11.9799 N.am    1  UNL1       -0.2905
     11 H          64.7385   90.4376   13.8904 H       1  UNL1        0.1513
     12 H          62.8518   89.0655   12.7469 H       1  UNL1        0.1509
     13 C          65.7104   92.2107   13.1109 C.3     1  UNL1        0.1181
     14 C          66.7862   92.3057   14.1517 C.ar    1  UNL1       -0.0026
     15 C          68.2104   92.0064   13.7879 C.ar    1  UNL1       -0.0026
     16 C          69.2862   92.1014   14.8288 C.ar    1  UNL1       -0.0003
     17 C          68.9380   92.4957   16.2335 C.ar    1  UNL1       -0.0000
     18 C          67.5139   92.7949   16.5974 C.ar    1  UNL1       -0.0003
     19 C          66.4380   92.6999   15.5565 C.ar    1  UNL1       -0.0026
     20 C          65.5902   93.2717   12.0574 C.3     1  UNL1        0.1312
     21 C          66.5788   96.0543   10.6684 C.3     1  UNL1        0.0718
     22 C          67.1014   94.6820   10.3626 C.ar    1  UNL1        0.1209
     23 N          68.1702   94.3477    9.3647 N.ar    1  UNL1       -0.2293
     24 C          68.3763   92.8620    9.3864 C.ar    1  UNL1        0.1188
     25 C          67.4349   92.2782   10.3978 C.ar    1  UNL1        0.0978
     26 N          66.6470   93.4029   11.0011 N.ar    1  UNL1       -0.3116
     27 C          59.1438   88.8184    7.3555 C.3     1  UNL1        0.1007
     28 C          59.0465   89.8474    6.2685 C.ar    1  UNL1        0.0129
     29 C          57.7884   90.5122    5.7939 C.ar    1  UNL1        0.0176
     30 C          58.1545   91.4679    4.6972 C.ar    1  UNL1        0.0799
     31 N          59.6389   91.3938    4.4941 N.ar    1  UNL1       -0.3038
     32 C          60.1901   90.3922    5.4652 C.ar    1  UNL1        0.0772
     33 C          60.4327   92.1826    3.4953 C.ar    1  UNL1        0.0640
     34 C          59.7608   93.2394    2.6697 C.ar    1  UNL1        0.0175
     35 C          60.5545   94.0282    1.6709 C.ar    1  UNL1        0.0053
     36 C          62.0201   93.7604    1.4977 C.ar    1  UNL1        0.0715
     37 C          62.6921   92.7037    2.3234 C.ar    1  UNL1        0.0053
     38 C          61.8984   91.9148    3.3222 C.ar    1  UNL1        0.0175
     39 C          62.8138   94.5493    0.4989 C.3     1  UNL1        0.4186
     40 F          63.6075   95.3381   -0.5000 F       1  UNL1       -0.1659
     41 F          63.0115   95.6357    1.5141 F       1  UNL1       -0.1659
     42 F          62.6161   93.4628   -0.5164 F       1  UNL1       -0.1659
@<TRIPOS>BOND
     1    21    22    1
     2    22    23   ar
     3    23    24   ar
     4    24    25   ar
     5    25    26   ar
     6    26    20    1
     7    20    13    1
     8    13     7    1
     9     7     8   am
    10     8     9    2
    11     8    10   am
    12    10     1    1
    13     1     2    1
    14     2     3    1
    15     3     4    1
    16     4    27    1
    17    27    28    1
    18    28    29   ar
    19    29    30   ar
    20    30    31   ar
    21    31    33    1
    22    33    34   ar
    23    34    35   ar
    24    35    36   ar
    25    36    39    1
    26    39    40    1
    27    39    41    1
    28    39    42    1
    29    36    37   ar
    30    37    38   ar
    31    31    32   ar
    32     4     5    1
    33     5     6    1
    34    13    14    1
    35    14    15   ar
    36    15    16   ar
    37    16    17   ar
    38    17    18   ar
    39    18    19   ar
    40    26    22   ar
    41     6     1    1
    42    19    14   ar
    43    32    28   ar
    44    38    33   ar
    45     7    11    1
    46    10    12    1
@<TRIPOS>MOLECULE
*****
 42 46 0 0 0
SMALL
GASTEIGER

@<TRIPOS>ATOM
      1 C          61.9145   88.3563    9.8779 C.3     1  UNL1        0.0758
      2 C          61.3501   87.2472    9.0405 C.3     1  UNL1        0.0370
      3 C          60.2637   87.5358    8.0473 C.3     1  UNL1        0.0741
      4 N          59.7417   88.9335    7.8916 N.3     1  UNL1       -0.2688
      5 C          60.3062   90.0425    8.7291 C.3     1  UNL1        0.0741
      6 C          61.3926   89.7539    9.7222 C.3     1  UNL1        0.0370
      7 N          64.0070   88.3475   13.2502 N.am    1  UNL1       -0.2849
      8 C          62.9205   88.6360   12.2570 C.2     1  UNL1        0.3010
      9 O          61.7537   89.4929   12.6496 O.2     1  UNL1       -0.2528
     10 N          63.0010   88.0677   10.8712 N.am    1  UNL1       -0.2905
     11 H          64.7728   87.7850   12.9925 H       1  UNL1        0.1513
     12 H          63.7668   87.5053   10.6135 H       1  UNL1        0.1509
     13 C          63.9265   88.9158   14.6360 C.3     1  UNL1        0.1181
     14 C          63.5792   88.0260   15.7925 C.ar    1  UNL1       -0.0026
     15 C          63.7537   86.5407   15.6749 C.ar    1  UNL1       -0.0026
     16 C          63.4064   85.6509   16.8314 C.ar    1  UNL1       -0.0003
     17 C          62.8846   86.2462   18.1055 C.ar    1  UNL1       -0.0000
     18 C          62.7101   87.7314   18.2231 C.ar    1  UNL1       -0.0003
     19 C          63.0574   88.6213   17.0666 C.ar    1  UNL1       -0.0026
     20 C          64.1934   90.3739   14.8653 C.3     1  UNL1        0.1312
     21 C          67.2872   91.3837   15.1080 C.3     1  UNL1        0.0718
     22 C          66.3664   91.6335   13.9505 C.ar    1  UNL1        0.1209
     23 N          66.7060   92.3914   12.7014 N.ar    1  UNL1       -0.2293
     24 C          65.4937   92.3957   11.8179 C.ar    1  UNL1        0.1188
     25 C          64.4050   91.6404   12.5210 C.ar    1  UNL1        0.0978
     26 N          64.9443   91.1694   13.8390 N.ar    1  UNL1       -0.3116
     27 C          58.6553   89.2220    6.8984 C.3     1  UNL1        0.1007
     28 C          58.8636   90.2653    5.8409 C.ar    1  UNL1        0.0129
     29 C          57.8113   91.1762    5.2818 C.ar    1  UNL1        0.0176
     30 C          58.4580   92.0547    4.2522 C.ar    1  UNL1        0.0799
     31 N          59.9102   91.6867    4.1751 N.ar    1  UNL1       -0.3038
     32 C          60.1608   90.5807    5.1570 C.ar    1  UNL1        0.0772
     33 C          60.9322   92.3143    3.2743 C.ar    1  UNL1        0.0640
     34 C          62.3350   91.7841    3.2475 C.ar    1  UNL1        0.0175
     35 C          63.3570   92.4117    2.3467 C.ar    1  UNL1        0.0053
     36 C          62.9762   93.5697    1.4727 C.ar    1  UNL1        0.0715
     37 C          61.5734   94.1000    1.4994 C.ar    1  UNL1        0.0053
     38 C          60.5514   93.4723    2.4002 C.ar    1  UNL1        0.0175
     39 C          63.9982   94.1973    0.5718 C.3     1  UNL1        0.4186
     40 F          65.0203   94.8250   -0.3290 F       1  UNL1       -0.1659
     41 F          63.1589   95.4374    0.4836 F       1  UNL1       -0.1659
     42 F          64.8377   92.9573    0.6601 F       1  UNL1       -0.1659
@<TRIPOS>BOND
     1    21    22    1
     2    22    23   ar
     3    23    24   ar
     4    24    25   ar
     5    25    26   ar
     6    26    20    1
     7    20    13    1
     8    13     7    1
     9     7     8   am
    10     8     9    2
    11     8    10   am
    12    10     1    1
    13     1     2    1
    14     2     3    1
    15     3     4    1
    16     4    27    1
    17    27    28    1
    18    28    29   ar
    19    29    30   ar
    20    30    31   ar
    21    31    33    1
    22    33    34   ar
    23    34    35   ar
    24    35    36   ar
    25    36    39    1
    26    39    40    1
    27    39    41    1
    28    39    42    1
    29    36    37   ar
    30    37    38   ar
    31    31    32   ar
    32     4     5    1
    33     5     6    1
    34    13    14    1
    35    14    15   ar
    36    15    16   ar
    37    16    17   ar
    38    17    18   ar
    39    18    19   ar
    40    26    22   ar
    41     6     1    1
    42    19    14   ar
    43    32    28   ar
    44    38    33   ar
    45     7    11    1
    46    10    12    1
@<TRIPOS>MOLECULE
*****
 42 46 0 0 0
SMALL
GASTEIGER

@<TRIPOS>ATOM
      1 C          61.8187   87.1082    9.4487 C.3     1  UNL1        0.0758
      2 C          61.0449   86.2794    8.4669 C.3     1  UNL1        0.0370
      3 C          59.9352   86.9005    7.6714 C.3     1  UNL1        0.0741
      4 N          59.5994   88.3505    7.8579 N.3     1  UNL1       -0.2688
      5 C          60.3733   89.1794    8.8398 C.3     1  UNL1        0.0741
      6 C          61.4829   88.5582    9.6352 C.3     1  UNL1        0.0370
      7 N          63.7661   85.3273   12.4130 N.am    1  UNL1       -0.2849
      8 C          62.6564   85.9485   11.6175 C.2     1  UNL1        0.3010
      9 O          61.2746   86.0310   12.1953 O.2     1  UNL1       -0.2528
     10 N          62.9285   86.4871   10.2442 N.am    1  UNL1       -0.2905
     11 H          64.6730   85.2732   12.0338 H       1  UNL1        0.1513
     12 H          63.8354   86.4329    9.8650 H       1  UNL1        0.1509
     13 C          63.4941   84.7888   13.7863 C.3     1  UNL1        0.1181
     14 C          63.3355   85.7302   14.9432 C.ar    1  UNL1       -0.0026
     15 C          62.5874   85.2939   16.1680 C.ar    1  UNL1       -0.0026
     16 C          62.4287   86.2354   17.3249 C.ar    1  UNL1       -0.0003
     17 C          63.0182   87.6130   17.2571 C.ar    1  UNL1       -0.0000
     18 C          63.7663   88.0493   16.0324 C.ar    1  UNL1       -0.0003
     19 C          63.9249   87.1078   14.8754 C.ar    1  UNL1       -0.0026
     20 C          63.3806   83.3088   14.0026 C.3     1  UNL1        0.1312
     21 C          61.5482   80.6156   13.8058 C.3     1  UNL1        0.0718
     22 C          62.4553   81.1450   12.7349 C.ar    1  UNL1        0.1209
     23 N          62.6794   80.5294   11.3856 N.ar    1  UNL1       -0.2293
     24 C          63.6602   81.3869   10.6420 C.ar    1  UNL1        0.1188
     25 C          64.0422   82.5324   11.5319 C.ar    1  UNL1        0.0978
     26 N          63.2976   82.3829   12.8254 N.ar    1  UNL1       -0.3116
     27 C          58.4897   88.9717    7.0624 C.3     1  UNL1        0.1007
     28 C          58.7972   90.0322    6.0472 C.ar    1  UNL1        0.0129
     29 C          57.8297   91.0437    5.5081 C.ar    1  UNL1        0.0176
     30 C          58.5608   91.9041    4.5206 C.ar    1  UNL1        0.0799
     31 N          59.9803   91.4244    4.4494 N.ar    1  UNL1       -0.3038
     32 C          60.1264   90.2675    5.3929 C.ar    1  UNL1        0.0772
     33 C          61.0634   92.0005    3.5863 C.ar    1  UNL1        0.0640
     34 C          62.4259   91.3735    3.5743 C.ar    1  UNL1        0.0175
     35 C          63.5090   91.9495    2.7111 C.ar    1  UNL1        0.0053
     36 C          63.2296   93.1526    1.8601 C.ar    1  UNL1        0.0715
     37 C          61.8671   93.7797    1.8721 C.ar    1  UNL1        0.0053
     38 C          60.7839   93.2037    2.7352 C.ar    1  UNL1        0.0175
     39 C          64.3127   93.7287    0.9970 C.3     1  UNL1        0.4186
     40 F          65.3959   94.3047    0.1339 F       1  UNL1       -0.1659
     41 F          63.6140   95.0560    1.0061 F       1  UNL1       -0.1659
     42 F          65.0115   92.4014    0.9879 F       1  UNL1       -0.1659
@<TRIPOS>BOND
     1    21    22    1
     2    22    23   ar
     3    23    24   ar
     4    24    25   ar
     5    25    26   ar
     6    26    20    1
     7    20    13    1
     8    13     7    1
     9     7     8   am
    10     8     9    2
    11     8    10   am
    12    10     1    1
    13     1     2    1
    14     2     3    1
    15     3     4    1
    16     4    27    1
    17    27    28    1
    18    28    29   ar
    19    29    30   ar
    20    30    31   ar
    21    31    33    1
    22    33    34   ar
    23    34    35   ar
    24    35    36   ar
    25    36    39    1
    26    39    40    1
    27    39    41    1
    28    39    42    1
    29    36    37   ar
    30    37    38   ar
    31    31    32   ar
    32     4     5    1
    33     5     6    1
    34    13    14    1
    35    14    15   ar
    36    15    16   ar
    37    16    17   ar
    38    17    18   ar
    39    18    19   ar
    40    26    22   ar
    41     6     1    1
    42    19    14   ar
    43    32    28   ar
    44    38    33   ar
    45     7    11    1
    46    10    12    1
@<TRIPOS>MOLECULE
*****
 42 46 0 0 0
SMALL
GASTEIGER

@<TRIPOS>ATOM
      1 C          60.4369   89.4935   11.1751 C.3     1  UNL1        0.0758
      2 C          60.1230   88.1052   10.7019 C.3     1  UNL1        0.0370
      3 C          59.7093   87.8735    9.2789 C.3     1  UNL1        0.0741
      4 N          59.6094   89.0301    8.3290 N.3     1  UNL1       -0.2688
      5 C          59.9234   90.4185    8.8022 C.3     1  UNL1        0.0741
      6 C          60.3371   90.6501   10.2252 C.3     1  UNL1        0.0370
      7 N          62.7088   89.8448   14.4102 N.am    1  UNL1       -0.2849
      8 C          62.2950   89.6130   12.9871 C.2     1  UNL1        0.3010
      9 O          63.3257   89.2690   11.9529 O.2     1  UNL1       -0.2528
     10 N          60.8507   89.7253   12.5982 N.am    1  UNL1       -0.2905
     11 H          62.0324   90.0705   15.0890 H       1  UNL1        0.1513
     12 H          60.1743   89.9510   13.2770 H       1  UNL1        0.1509
     13 C          64.1531   89.7325   14.7991 C.3     1  UNL1        0.1181
     14 C          65.0329   90.9472   14.7750 C.ar    1  UNL1       -0.0026
     15 C          65.7050   91.3613   13.4995 C.ar    1  UNL1       -0.0026
     16 C          66.5847   92.5760   13.4754 C.ar    1  UNL1       -0.0003
     17 C          66.7924   93.3766   14.7268 C.ar    1  UNL1       -0.0000
     18 C          66.1203   92.9624   16.0023 C.ar    1  UNL1       -0.0003
     19 C          65.2405   91.7477   16.0264 C.ar    1  UNL1       -0.0026
     20 C          64.7177   88.4056   15.2120 C.3     1  UNL1        0.1312
     21 C          64.2944   85.2849   14.3566 C.3     1  UNL1        0.0718
     22 C          63.6541   85.9734   15.5253 C.ar    1  UNL1        0.1209
     23 N          62.7068   85.3484   16.5061 N.ar    1  UNL1       -0.2293
     24 C          62.3159   86.3965   17.5054 C.ar    1  UNL1        0.1188
     25 C          63.0216   87.6693   17.1423 C.ar    1  UNL1        0.0978
     26 N          63.8487   87.4078   15.9185 N.ar    1  UNL1       -0.3116
     27 C          59.1957   88.7984    6.9059 C.3     1  UNL1        0.1007
     28 C          59.1987   89.9367    5.9291 C.ar    1  UNL1        0.0129
     29 C          58.0208   90.7931    5.5696 C.ar    1  UNL1        0.0176
     30 C          58.4742   91.8042    4.5587 C.ar    1  UNL1        0.0799
     31 N          59.9323   91.5727    4.2933 N.ar    1  UNL1       -0.3038
     32 C          60.3800   90.4185    5.1403 C.ar    1  UNL1        0.0772
     33 C          60.7917   92.3576    3.3471 C.ar    1  UNL1        0.0640
     34 C          62.2411   92.0074    3.1841 C.ar    1  UNL1        0.0175
     35 C          63.1005   92.7922    2.2379 C.ar    1  UNL1        0.0053
     36 C          62.5106   93.9273    1.4547 C.ar    1  UNL1        0.0715
     37 C          61.0612   94.2776    1.6176 C.ar    1  UNL1        0.0053
     38 C          60.2018   93.4927    2.5638 C.ar    1  UNL1        0.0175
     39 C          63.3700   94.7122    0.5084 C.3     1  UNL1        0.4186
     40 F          64.2294   95.4971   -0.4378 F       1  UNL1       -0.1659
     41 F          64.1739   93.4799    0.2164 F       1  UNL1       -0.1659
     42 F          62.5662   95.9445    0.8005 F       1  UNL1       -0.1659
@<TRIPOS>BOND
     1    21    22    1
     2    22    23   ar
     3    23    24   ar
     4    24    25   ar
     5    25    26   ar
     6    26    20    1
     7    20    13    1
     8    13     7    1
     9     7     8   am
    10     8     9    2
    11     8    10   am
    12    10     1    1
    13     1     2    1
    14     2     3    1
    15     3     4    1
    16     4    27    1
    17    27    28    1
    18    28    29   ar
    19    29    30   ar
    20    30    31   ar
    21    31    33    1
    22    33    34   ar
    23    34    35   ar
    24    35    36   ar
    25    36    39    1
    26    39    40    1
    27    39    41    1
    28    39    42    1
    29    36    37   ar
    30    37    38   ar
    31    31    32   ar
    32     4     5    1
    33     5     6    1
    34    13    14    1
    35    14    15   ar
    36    15    16   ar
    37    16    17   ar
    38    17    18   ar
    39    18    19   ar
    40    26    22   ar
    41     6     1    1
    42    19    14   ar
    43    32    28   ar
    44    38    33   ar
    45     7    11    1
    46    10    12    1
@<TRIPOS>MOLECULE
*****
 42 46 0 0 0
SMALL
GASTEIGER

@<TRIPOS>ATOM
      1 C          59.5939   92.4831    4.1452 C.3     1  UNL1        0.0758
      2 C          60.7332   91.5569    4.4521 C.3     1  UNL1        0.0370
      3 C          60.4974   90.3251    5.2749 C.3     1  UNL1        0.0741
      4 N          59.1225   90.0195    5.7908 N.3     1  UNL1       -0.2688
      5 C          57.9832   90.9457    5.4838 C.3     1  UNL1        0.0741
      6 C          58.2190   92.1775    4.6611 C.3     1  UNL1        0.0370
      7 N          60.0081   94.8712    1.0026 N.am    1  UNL1       -0.2849
      8 C          59.7724   93.6393    1.8254 C.2     1  UNL1        0.3010
      9 O          59.4795   92.3318    1.1512 O.2     1  UNL1       -0.2528
     10 N          59.8296   93.7150    3.3224 N.am    1  UNL1       -0.2905
     11 H          60.2004   95.7294    1.4451 H       1  UNL1        0.1513
     12 H          60.0219   94.5732    3.7649 H       1  UNL1        0.1509
     13 C          59.9509   94.7956   -0.4943 C.3     1  UNL1        0.1181
     14 C          58.7879   94.1292   -1.1676 C.ar    1  UNL1       -0.0026
     15 C          59.0211   92.9843   -2.1083 C.ar    1  UNL1       -0.0026
     16 C          57.8581   92.3179   -2.7816 C.ar    1  UNL1       -0.0003
     17 C          56.4619   92.7965   -2.5143 C.ar    1  UNL1       -0.0000
     18 C          56.2286   93.9414   -1.5737 C.ar    1  UNL1       -0.0003
     19 C          57.3916   94.6078   -0.9003 C.ar    1  UNL1       -0.0026
     20 C          61.0566   95.3863   -1.3180 C.3     1  UNL1        0.1312
     21 C          63.4639   93.6049   -0.0214 C.3     1  UNL1        0.0718
     22 C          63.0994   93.6695   -1.4750 C.ar    1  UNL1        0.1209
     23 N          63.7774   92.9265   -2.5878 N.ar    1  UNL1       -0.2293
     24 C          63.0898   93.2862   -3.8716 C.ar    1  UNL1        0.1188
     25 C          61.9869   94.2514   -3.5521 C.ar    1  UNL1        0.0978
     26 N          61.9928   94.4883   -2.0710 N.ar    1  UNL1       -0.3116
     27 C          58.8868   88.7875    6.6136 C.3     1  UNL1        0.1007
     28 C          59.7583   88.5000    7.8000 C.ar    1  UNL1        0.0129
     29 C          59.9571   87.1599    8.4439 C.ar    1  UNL1        0.0176
     30 C          60.9057   87.3338    9.5928 C.ar    1  UNL1        0.0799
     31 N          61.2932   88.7814    9.6590 N.ar    1  UNL1       -0.3038
     32 C          60.5840   89.5021    8.5510 C.ar    1  UNL1        0.0772
     33 C          62.2260   89.3996   10.6578 C.ar    1  UNL1        0.0640
     34 C          62.7296   90.7969   10.4489 C.ar    1  UNL1        0.0175
     35 C          63.6624   91.4151   11.4477 C.ar    1  UNL1        0.0053
     36 C          64.0916   90.6361   12.6554 C.ar    1  UNL1        0.0715
     37 C          63.5879   89.2387   12.8644 C.ar    1  UNL1        0.0053
     38 C          62.6551   88.6205   11.8656 C.ar    1  UNL1        0.0175
     39 C          65.0244   91.2543   13.6542 C.3     1  UNL1        0.4186
     40 F          65.9572   91.8725   14.6531 F       1  UNL1       -0.1659
     41 F          65.0242   92.5298   12.8649 F       1  UNL1       -0.1659
     42 F          65.0246   89.9787   14.4436 F       1  UNL1       -0.1659
@<TRIPOS>BOND
     1    21    22    1
     2    22    23   ar
     3    23    24   ar
     4    24    25   ar
     5    25    26   ar
     6    26    20    1
     7    20    13    1
     8    13     7    1
     9     7     8   am
    10     8     9    2
    11     8    10   am
    12    10     1    1
    13     1     2    1
    14     2     3    1
    15     3     4    1
    16     4    27    1
    17    27    28    1
    18    28    29   ar
    19    29    30   ar
    20    30    31   ar
    21    31    33    1
    22    33    34   ar
    23    34    35   ar
    24    35    36   ar
    25    36    39    1
    26    39    40    1
    27    39    41    1
    28    39    42    1
    29    36    37   ar
    30    37    38   ar
    31    31    32   ar
    32     4     5    1
    33     5     6    1
    34    13    14    1
    35    14    15   ar
    36    15    16   ar
    37    16    17   ar
    38    17    18   ar
    39    18    19   ar
    40    26    22   ar
    41     6     1    1
    42    19    14   ar
    43    32    28   ar
    44    38    33   ar
    45     7    11    1
    46    10    12    1
@<TRIPOS>MOLECULE
*****
 42 46 0 0 0
SMALL
GASTEIGER

@<TRIPOS>ATOM
      1 C          62.2542   89.8451   10.9562 C.3     1  UNL1        0.0758
      2 C          61.0261   90.6896   10.7872 C.3     1  UNL1        0.0370
      3 C          60.0233   90.3507    9.7245 C.3     1  UNL1        0.0741
      4 N          60.2486   89.1673    8.8307 N.3     1  UNL1       -0.2688
      5 C          61.4766   88.3228    8.9997 C.3     1  UNL1        0.0741
      6 C          62.4795   88.6617   10.0624 C.3     1  UNL1        0.0370
      7 N          65.2063   91.6693   12.8818 N.am    1  UNL1       -0.2849
      8 C          64.2034   91.3305   11.8190 C.2     1  UNL1        0.3010
      9 O          64.1469   92.1381   10.5563 O.2     1  UNL1       -0.2528
     10 N          63.2571   90.1840   12.0190 N.am    1  UNL1       -0.2905
     11 H          65.2434   91.1392   13.7106 H       1  UNL1        0.1513
     12 H          63.2942   89.6539   12.8477 H       1  UNL1        0.1509
     13 C          66.1526   92.8158   12.6818 C.3     1  UNL1        0.1181
     14 C          66.7693   93.0531   11.3352 C.ar    1  UNL1       -0.0026
     15 C          67.6933   92.0307   10.7428 C.ar    1  UNL1       -0.0026
     16 C          68.3100   92.2680    9.3962 C.ar    1  UNL1       -0.0003
     17 C          68.0027   93.5277    8.6420 C.ar    1  UNL1       -0.0000
     18 C          67.0788   94.5501    9.2344 C.ar    1  UNL1       -0.0003
     19 C          66.4620   94.3128   10.5811 C.ar    1  UNL1       -0.0026
     20 C          66.4822   93.7250   13.8284 C.3     1  UNL1        0.1312
     21 C          65.2659   92.3691   16.5362 C.3     1  UNL1        0.0718
     22 C          66.7192   92.5855   16.2347 C.ar    1  UNL1        0.1209
     23 N          67.8687   92.2166   17.1250 N.ar    1  UNL1       -0.2293
     24 C          69.1382   92.6118   16.4306 C.ar    1  UNL1        0.1188
     25 C          68.7733   93.2250   15.1112 C.ar    1  UNL1        0.0978
     26 N          67.2783   93.2087   14.9901 N.ar    1  UNL1       -0.3116
     27 C          59.2457   88.8284    7.7679 C.3     1  UNL1        0.1007
     28 C          59.0626   89.7405    6.5913 C.ar    1  UNL1        0.0129
     29 C          57.7508   90.2033    6.0302 C.ar    1  UNL1        0.0176
     30 C          58.0366   91.0988    4.8612 C.ar    1  UNL1        0.0799
     31 N          59.5252   91.1894    4.6999 N.ar    1  UNL1       -0.3038
     32 C          60.1593   90.3500    5.7691 C.ar    1  UNL1        0.0772
     33 C          60.2520   91.9806    3.6531 C.ar    1  UNL1        0.0640
     34 C          61.7282   91.7949    3.4630 C.ar    1  UNL1        0.0175
     35 C          62.4550   92.5860    2.4162 C.ar    1  UNL1        0.0053
     36 C          61.7057   93.5630    1.5596 C.ar    1  UNL1        0.0715
     37 C          60.2294   93.7488    1.7497 C.ar    1  UNL1        0.0053
     38 C          59.5026   92.9576    2.7964 C.ar    1  UNL1        0.0175
     39 C          62.4325   94.3541    0.5128 C.3     1  UNL1        0.4186
     40 F          63.1593   95.1454   -0.5340 F       1  UNL1       -0.1659
     41 F          63.7415   93.8340    1.0285 F       1  UNL1       -0.1659
     42 F          61.1235   94.8743   -0.0030 F       1  UNL1       -0.1659
@<TRIPOS>BOND
     1    21    22    1
     2    22    23   ar
     3    23    24   ar
     4    24    25   ar
     5    25    26   ar
     6    26    20    1
     7    20    13    1
     8    13     7    1
     9     7     8   am
    10     8     9    2
    11     8    10   am
    12    10     1    1
    13     1     2    1
    14     2     3    1
    15     3     4    1
    16     4    27    1
    17    27    28    1
    18    28    29   ar
    19    29    30   ar
    20    30    31   ar
    21    31    33    1
    22    33    34   ar
    23    34    35   ar
    24    35    36   ar
    25    36    39    1
    26    39    40    1
    27    39    41    1
    28    39    42    1
    29    36    37   ar
    30    37    38   ar
    31    31    32   ar
    32     4     5    1
    33     5     6    1
    34    13    14    1
    35    14    15   ar
    36    15    16   ar
    37    16    17   ar
    38    17    18   ar
    39    18    19   ar
    40    26    22   ar
    41     6     1    1
    42    19    14   ar
    43    32    28   ar
    44    38    33   ar
    45     7    11    1
    46    10    12    1
