@<TRIPOS>MOLECULE
*****
 34 37 0 0 0
SMALL
GASTEIGER

@<TRIPOS>ATOM
      1 C          65.2100   92.1499   12.3043 C.ar    1  UNL1       -0.0004
      2 C          64.7127   91.2999   13.4357 C.ar    1  UNL1       -0.0024
      3 C          63.5353   90.3933   13.2314 C.ar    1  UNL1       -0.0002
      4 C          62.8553   90.3366   11.8956 C.ar    1  UNL1        0.0030
      5 C          61.6779   89.4300   11.6913 C.ar    1  UNL1        0.0369
      6 C          60.9978   89.3733   10.3555 C.ar    1  UNL1        0.1391
      7 C          61.4952   90.2232    9.2240 C.ar    1  UNL1        0.0369
      8 C          62.6726   91.1298    9.4283 C.ar    1  UNL1        0.0031
      9 C          63.3526   91.1865   10.7641 C.ar    1  UNL1       -0.0001
     10 C          64.5300   92.0932   10.9685 C.ar    1  UNL1       -0.0024
     11 C          66.3875   93.0565   12.5086 C.3     1  UNL1        0.1240
     12 N          67.2116   92.9458   13.7570 N.ar    1  UNL1       -0.3045
     13 C          67.0833   93.8084   14.9775 C.ar    1  UNL1        0.0983
     14 C          68.1011   93.3488   15.9790 C.ar    1  UNL1        0.1193
     15 N          68.8583   92.2022   15.3774 N.ar    1  UNL1       -0.2223
     16 C          68.3086   91.9532   14.0042 C.ar    1  UNL1        0.1788
     17 C          66.2409   95.4825   11.5903 C.3     1  UNL1        0.0197
     18 C          66.7408   94.0738   11.4644 C.3     1  UNL1        0.0827
     19 N          67.5939   93.6825   10.2944 N.3     1  UNL1       -0.2696
     20 C          68.1739   92.3012   10.2177 C.3     1  UNL1        0.0897
     21 C          67.8672   94.6724    9.2011 C.3     1  UNL1        0.0897
     22 O          59.8205   88.4666   10.1511 O.3     1  UNL1       -0.4706
     23 C          59.9863   87.1801    9.3979 C.3     1  UNL1        0.2320
     24 C          61.0807   86.2260    9.7748 C.ar    1  UNL1        0.0214
     25 C          61.2906   85.8560   11.2132 C.ar    1  UNL1        0.0024
     26 C          62.3849   84.9019   11.5903 C.ar    1  UNL1        0.0367
     27 C          63.2694   84.3178   10.5288 C.ar    1  UNL1        0.1382
     28 C          63.0594   84.6879    9.0904 C.ar    1  UNL1        0.0367
     29 C          61.9651   85.6419    8.7134 C.ar    1  UNL1        0.0024
     30 O          64.3637   83.3638   10.9058 O.3     1  UNL1       -0.4826
     31 C          64.1236   82.3270   11.9628 C.3     1  UNL1        0.1334
     32 C          64.8114   83.1972   12.9726 C.3     1  UNL1        0.0436
     33 C          63.4358   81.4568   10.9531 C.3     1  UNL1        0.0436
     34 C          63.8836   81.2902   13.0200 C.3     1  UNL1        0.0436
@<TRIPOS>BOND
     1    17    18    1
     2    18    11    1
     3    11     1    1
     4     1     2   ar
     5     2     3   ar
     6     3     4   ar
     7     4     5   ar
     8     5     6   ar
     9     6    22    1
    10    22    23    1
    11    23    24    1
    12    24    25   ar
    13    25    26   ar
    14    26    27   ar
    15    27    30    1
    16    30    31    1
    17    31    32    1
    18    31    33    1
    19    31    34    1
    20    27    28   ar
    21    28    29   ar
    22     6     7   ar
    23     7     8   ar
    24     8     9   ar
    25     9    10   ar
    26    11    12    1
    27    12    13   ar
    28    13    14   ar
    29    14    15   ar
    30    15    16   ar
    31    18    19    1
    32    19    20    1
    33    19    21    1
    34    10     1   ar
    35    16    12   ar
    36     9     4   ar
    37    29    24   ar
@<TRIPOS>MOLECULE
*****
 34 37 0 0 0
SMALL
GASTEIGER

@<TRIPOS>ATOM
      1 C          65.1303   92.1654   12.4140 C.ar    1  UNL1       -0.0004
      2 C          64.6792   91.2265   13.4933 C.ar    1  UNL1       -0.0024
      3 C          63.5552   90.2682   13.2321 C.ar    1  UNL1       -0.0002
      4 C          62.8823   90.2488   11.8917 C.ar    1  UNL1        0.0030
      5 C          61.7583   89.2904   11.6305 C.ar    1  UNL1        0.0369
      6 C          61.0854   89.2710   10.2901 C.ar    1  UNL1        0.1391
      7 C          61.5366   90.2100    9.2107 C.ar    1  UNL1        0.0369
      8 C          62.6606   91.1683    9.4719 C.ar    1  UNL1        0.0031
      9 C          63.3334   91.1877   10.8124 C.ar    1  UNL1       -0.0001
     10 C          64.4574   92.1460   11.0735 C.ar    1  UNL1       -0.0024
     11 C          66.2544   93.1237   12.6751 C.3     1  UNL1        0.1240
     12 N          66.5742   94.1950   11.6751 N.ar    1  UNL1       -0.3045
     13 C          66.2292   95.6494   11.8003 C.ar    1  UNL1        0.0983
     14 C          66.7369   96.3533   10.5769 C.ar    1  UNL1        0.1193
     15 N          67.3957   95.3339    9.6955 N.ar    1  UNL1       -0.2223
     16 C          67.2951   94.0000   10.3742 C.ar    1  UNL1        0.1788
     17 C          66.4870   93.4940   15.2362 C.3     1  UNL1        0.0197
     18 C          67.0586   93.0107   13.9362 C.3     1  UNL1        0.0827
     19 N          68.4345   92.4145   13.8975 N.3     1  UNL1       -0.2696
     20 C          69.3820   92.6400   15.0384 C.3     1  UNL1        0.0897
     21 C          68.8629   91.5929   12.7180 C.3     1  UNL1        0.0897
     22 O          59.9614   88.3127   10.0289 O.3     1  UNL1       -0.4706
     23 C          60.2164   87.0484    9.2631 C.3     1  UNL1        0.2320
     24 C          61.2578   86.0798    9.7398 C.ar    1  UNL1        0.0214
     25 C          61.3752   85.7641   11.2014 C.ar    1  UNL1        0.0024
     26 C          62.4167   84.7955   11.6782 C.ar    1  UNL1        0.0367
     27 C          63.3407   84.1427   10.6933 C.ar    1  UNL1        0.1382
     28 C          63.2232   84.4585    9.2315 C.ar    1  UNL1        0.0367
     29 C          62.1818   85.4271    8.7548 C.ar    1  UNL1        0.0024
     30 O          64.3821   83.1742   11.1700 O.3     1  UNL1       -0.4826
     31 C          64.0470   82.1799   12.2419 C.3     1  UNL1        0.1334
     32 C          64.7382   83.0412   13.2569 C.3     1  UNL1        0.0436
     33 C          63.3557   81.3186   11.2269 C.3     1  UNL1        0.0436
     34 C          63.7118   81.1857   13.3139 C.3     1  UNL1        0.0436
@<TRIPOS>BOND
     1    17    18    1
     2    18    11    1
     3    11     1    1
     4     1     2   ar
     5     2     3   ar
     6     3     4   ar
     7     4     5   ar
     8     5     6   ar
     9     6    22    1
    10    22    23    1
    11    23    24    1
    12    24    25   ar
    13    25    26   ar
    14    26    27   ar
    15    27    30    1
    16    30    31    1
    17    31    32    1
    18    31    33    1
    19    31    34    1
    20    27    28   ar
    21    28    29   ar
    22     6     7   ar
    23     7     8   ar
    24     8     9   ar
    25     9    10   ar
    26    11    12    1
    27    12    13   ar
    28    13    14   ar
    29    14    15   ar
    30    15    16   ar
    31    18    19    1
    32    19    20    1
    33    19    21    1
    34    10     1   ar
    35    16    12   ar
    36     9     4   ar
    37    29    24   ar
@<TRIPOS>MOLECULE
*****
 34 37 0 0 0
SMALL
GASTEIGER

@<TRIPOS>ATOM
      1 C          62.9548   84.4585   12.0431 C.ar    1  UNL1       -0.0004
      2 C          63.4268   83.9109   10.7288 C.ar    1  UNL1       -0.0024
      3 C          62.9207   84.5002    9.4456 C.ar    1  UNL1       -0.0002
      4 C          61.9426   85.6370    9.4767 C.ar    1  UNL1        0.0030
      5 C          61.4364   86.2263    8.1935 C.ar    1  UNL1        0.0369
      6 C          60.4583   87.3631    8.2246 C.ar    1  UNL1        0.1391
      7 C          59.9864   87.9106    9.5389 C.ar    1  UNL1        0.0369
      8 C          60.4925   87.3214   10.8221 C.ar    1  UNL1        0.0031
      9 C          61.4706   86.1846   10.7910 C.ar    1  UNL1       -0.0001
     10 C          61.9767   85.5953   12.0742 C.ar    1  UNL1       -0.0024
     11 C          63.4609   83.8692   13.3263 C.3     1  UNL1        0.1240
     12 N          63.1812   82.4323   13.6535 N.ar    1  UNL1       -0.3045
     13 C          61.8299   81.8329   13.9077 C.ar    1  UNL1        0.0983
     14 C          62.0172   80.3726   14.1952 C.ar    1  UNL1        0.1193
     15 N          63.4843   80.0696   14.1187 N.ar    1  UNL1       -0.2223
     16 C          64.2037   81.3426   13.7839 C.ar    1  UNL1        0.1788
     17 C          65.7423   84.7723   14.1807 C.3     1  UNL1        0.0197
     18 C          64.2467   84.7169   14.2823 C.3     1  UNL1        0.0827
     19 N          63.5370   85.5091   15.3400 N.3     1  UNL1       -0.2696
     20 C          63.9631   86.9168   15.6351 C.3     1  UNL1        0.0897
     21 C          62.4013   84.8938   16.1025 C.3     1  UNL1        0.0897
     22 O          59.9522   87.9523    6.9414 O.3     1  UNL1       -0.4706
     23 C          59.0995   89.1862    6.9676 C.3     1  UNL1        0.2320
     24 C          59.2971   90.2564    5.9354 C.ar    1  UNL1        0.0214
     25 C          58.1193   91.0319    5.4242 C.ar    1  UNL1        0.0024
     26 C          58.3168   92.1023    4.3920 C.ar    1  UNL1        0.0367
     27 C          59.6922   92.3971    3.8711 C.ar    1  UNL1        0.1382
     28 C          60.8700   91.6215    4.3823 C.ar    1  UNL1        0.0367
     29 C          60.6724   90.5513    5.4145 C.ar    1  UNL1        0.0024
     30 O          59.8898   93.4674    2.8389 O.3     1  UNL1       -0.4826
     31 C          60.4642   93.1190    1.4978 C.3     1  UNL1        0.1334
     32 C          61.8492   93.2188    2.0651 C.3     1  UNL1        0.0436
     33 C          59.0792   93.0193    0.9305 C.3     1  UNL1        0.0436
     34 C          61.0387   92.7707    0.1566 C.3     1  UNL1        0.0436
@<TRIPOS>BOND
     1    17    18    1
     2    18    11    1
     3    11     1    1
     4     1     2   ar
     5     2     3   ar
     6     3     4   ar
     7     4     5   ar
     8     5     6   ar
     9     6    22    1
    10    22    23    1
    11    23    24    1
    12    24    25   ar
    13    25    26   ar
    14    26    27   ar
    15    27    30    1
    16    30    31    1
    17    31    32    1
    18    31    33    1
    19    31    34    1
    20    27    28   ar
    21    28    29   ar
    22     6     7   ar
    23     7     8   ar
    24     8     9   ar
    25     9    10   ar
    26    11    12    1
    27    12    13   ar
    28    13    14   ar
    29    14    15   ar
    30    15    16   ar
    31    18    19    1
    32    19    20    1
    33    19    21    1
    34    10     1   ar
    35    16    12   ar
    36     9     4   ar
    37    29    24   ar
@<TRIPOS>MOLECULE
*****
 34 37 0 0 0
SMALL
GASTEIGER

@<TRIPOS>ATOM
      1 C          62.6996   84.6407   12.0760 C.ar    1  UNL1       -0.0004
      2 C          63.2150   84.0954   10.7771 C.ar    1  UNL1       -0.0024
      3 C          62.7503   84.6857    9.4789 C.ar    1  UNL1       -0.0002
      4 C          61.7702   85.8212    9.4795 C.ar    1  UNL1        0.0030
      5 C          61.3054   86.4115    8.1811 C.ar    1  UNL1        0.0369
      6 C          60.3253   87.5470    8.1817 C.ar    1  UNL1        0.1391
      7 C          59.8099   88.0922    9.4806 C.ar    1  UNL1        0.0369
      8 C          60.2747   87.5020   10.7789 C.ar    1  UNL1        0.0031
      9 C          61.2548   86.3664   10.7783 C.ar    1  UNL1       -0.0001
     10 C          61.7195   85.7762   12.0766 C.ar    1  UNL1       -0.0024
     11 C          63.1644   84.0504   13.3744 C.3     1  UNL1        0.1240
     12 N          63.2108   84.8993   14.6101 N.ar    1  UNL1       -0.3045
     13 C          62.4571   84.6467   15.8822 C.ar    1  UNL1        0.0983
     14 C          62.7996   85.7412   16.8491 C.ar    1  UNL1        0.1193
     15 N          63.7651   86.6702   16.1746 N.ar    1  UNL1       -0.2223
     16 C          64.0192   86.1499   14.7909 C.ar    1  UNL1        0.1788
     17 C          65.0089   82.2571   13.7376 C.3     1  UNL1        0.0197
     18 C          63.5826   82.6113   13.4369 C.3     1  UNL1        0.0827
     19 N          62.5746   81.5262   13.1987 N.3     1  UNL1       -0.2696
     20 C          62.6818   80.6572   11.9807 C.3     1  UNL1        0.0897
     21 C          61.4595   81.3103   14.1784 C.3     1  UNL1        0.0897
     22 O          59.8606   88.1373    6.8834 O.3     1  UNL1       -0.4706
     23 C          59.0459   89.3968    6.8812 C.3     1  UNL1        0.2320
     24 C          59.2557   90.4238    5.8082 C.ar    1  UNL1        0.0214
     25 C          58.0947   91.2275    5.3021 C.ar    1  UNL1        0.0024
     26 C          58.3044   92.2545    4.2290 C.ar    1  UNL1        0.0367
     27 C          59.6751   92.4777    3.6621 C.ar    1  UNL1        0.1382
     28 C          60.8361   91.6739    4.1683 C.ar    1  UNL1        0.0367
     29 C          60.6264   90.6470    5.2413 C.ar    1  UNL1        0.0024
     30 O          59.8849   93.5047    2.5892 O.3     1  UNL1       -0.4826
     31 C          60.7007   93.1666    1.3767 C.3     1  UNL1        0.1334
     32 C          59.4985   92.5292    0.7455 C.3     1  UNL1        0.0436
     33 C          61.9029   93.8040    2.0078 C.3     1  UNL1        0.0436
     34 C          61.5165   92.8285    0.1641 C.3     1  UNL1        0.0436
@<TRIPOS>BOND
     1    17    18    1
     2    18    11    1
     3    11     1    1
     4     1     2   ar
     5     2     3   ar
     6     3     4   ar
     7     4     5   ar
     8     5     6   ar
     9     6    22    1
    10    22    23    1
    11    23    24    1
    12    24    25   ar
    13    25    26   ar
    14    26    27   ar
    15    27    30    1
    16    30    31    1
    17    31    32    1
    18    31    33    1
    19    31    34    1
    20    27    28   ar
    21    28    29   ar
    22     6     7   ar
    23     7     8   ar
    24     8     9   ar
    25     9    10   ar
    26    11    12    1
    27    12    13   ar
    28    13    14   ar
    29    14    15   ar
    30    15    16   ar
    31    18    19    1
    32    19    20    1
    33    19    21    1
    34    10     1   ar
    35    16    12   ar
    36     9     4   ar
    37    29    24   ar
@<TRIPOS>MOLECULE
*****
 34 37 0 0 0
SMALL
GASTEIGER

@<TRIPOS>ATOM
      1 C          63.1388   87.6223   13.0131 C.ar    1  UNL1       -0.0004
      2 C          63.0550   86.2649   12.3804 C.ar    1  UNL1       -0.0024
      3 C          62.3291   86.0872   11.0799 C.ar    1  UNL1       -0.0002
      4 C          61.6869   87.2668   10.4121 C.ar    1  UNL1        0.0030
      5 C          60.9610   87.0890    9.1115 C.ar    1  UNL1        0.0369
      6 C          60.3188   88.2687    8.4437 C.ar    1  UNL1        0.1391
      7 C          60.4026   89.6262    9.0764 C.ar    1  UNL1        0.0369
      8 C          61.1285   89.8039   10.3770 C.ar    1  UNL1        0.0031
      9 C          61.7707   88.6242   11.0448 C.ar    1  UNL1       -0.0001
     10 C          62.4966   88.8020   12.3453 C.ar    1  UNL1       -0.0024
     11 C          63.8647   87.8001   14.3137 C.3     1  UNL1        0.1240
     12 N          64.1381   89.1788   14.8376 N.ar    1  UNL1       -0.3045
     13 C          65.1990   90.1162   14.3418 C.ar    1  UNL1        0.0983
     14 C          65.1151   91.3789   15.1471 C.ar    1  UNL1        0.1193
     15 N          64.0024   91.2219   16.1407 N.ar    1  UNL1       -0.2223
     16 C          63.3985   89.8622   15.9494 C.ar    1  UNL1        0.1788
     17 C          65.7238   86.0985   14.9449 C.3     1  UNL1        0.0197
     18 C          64.3173   86.5993   15.0903 C.3     1  UNL1        0.0827
     19 N          63.3634   85.8992   16.0122 N.3     1  UNL1       -0.2696
     20 C          62.8286   84.5451   15.6509 C.3     1  UNL1        0.0897
     21 C          62.9443   86.5531   17.2954 C.3     1  UNL1        0.0897
     22 O          59.5929   88.0910    7.1431 O.3     1  UNL1       -0.4706
     23 C          58.5698   89.0994    6.7113 C.3     1  UNL1        0.2320
     24 C          58.9546   90.2028    5.7709 C.ar    1  UNL1        0.0214
     25 C          57.8999   91.1036    5.2001 C.ar    1  UNL1        0.0024
     26 C          58.2847   92.2071    4.2596 C.ar    1  UNL1        0.0367
     27 C          59.7243   92.4096    3.8901 C.ar    1  UNL1        0.1382
     28 C          60.7791   91.5087    4.4610 C.ar    1  UNL1        0.0367
     29 C          60.3942   90.4053    5.4014 C.ar    1  UNL1        0.0024
     30 O          60.1092   93.5130    2.9497 O.3     1  UNL1       -0.4826
     31 C          60.6510   93.1847    1.5901 C.3     1  UNL1        0.1334
     32 C          59.2524   93.0808    1.0579 C.3     1  UNL1        0.0436
     33 C          62.0495   93.2887    2.1222 C.3     1  UNL1        0.0436
     34 C          61.1927   92.8564    0.2303 C.3     1  UNL1        0.0436
@<TRIPOS>BOND
     1    17    18    1
     2    18    11    1
     3    11     1    1
     4     1     2   ar
     5     2     3   ar
     6     3     4   ar
     7     4     5   ar
     8     5     6   ar
     9     6    22    1
    10    22    23    1
    11    23    24    1
    12    24    25   ar
    13    25    26   ar
    14    26    27   ar
    15    27    30    1
    16    30    31    1
    17    31    32    1
    18    31    33    1
    19    31    34    1
    20    27    28   ar
    21    28    29   ar
    22     6     7   ar
    23     7     8   ar
    24     8     9   ar
    25     9    10   ar
    26    11    12    1
    27    12    13   ar
    28    13    14   ar
    29    14    15   ar
    30    15    16   ar
    31    18    19    1
    32    19    20    1
    33    19    21    1
    34    10     1   ar
    35    16    12   ar
    36     9     4   ar
    37    29    24   ar
@<TRIPOS>MOLECULE
*****
 34 37 0 0 0
SMALL
GASTEIGER

@<TRIPOS>ATOM
      1 C          62.3208   86.1854   11.2210 C.ar    1  UNL1       -0.0004
      2 C          62.4008   87.6661   11.4472 C.ar    1  UNL1       -0.0024
      3 C          61.7014   88.6067   10.5112 C.ar    1  UNL1       -0.0002
      4 C          60.9219   88.0666    9.3490 C.ar    1  UNL1        0.0030
      5 C          60.2224   89.0072    8.4131 C.ar    1  UNL1        0.0369
      6 C          59.4429   88.4671    7.2509 C.ar    1  UNL1        0.1391
      7 C          59.3629   86.9864    7.0247 C.ar    1  UNL1        0.0369
      8 C          60.0623   86.0458    7.9606 C.ar    1  UNL1        0.0031
      9 C          60.8418   86.5859    9.1228 C.ar    1  UNL1       -0.0001
     10 C          61.5413   85.6454   10.0588 C.ar    1  UNL1       -0.0024
     11 C          63.0202   85.2448   12.1570 C.3     1  UNL1        0.1240
     12 N          63.2988   83.8334   11.7323 N.ar    1  UNL1       -0.3045
     13 C          62.5147   82.6201   12.1361 C.ar    1  UNL1        0.0983
     14 C          63.1416   81.4243   11.4827 C.ar    1  UNL1        0.1193
     15 N          64.3132   81.8985   10.6749 N.ar    1  UNL1       -0.2223
     16 C          64.4104   83.3874   10.8292 C.ar    1  UNL1        0.1788
     17 C          63.8966   87.1313   13.7136 C.3     1  UNL1        0.0197
     18 C          63.4411   85.7156   13.5175 C.3     1  UNL1        0.0827
     19 N          63.4067   84.7707   14.6820 N.3     1  UNL1       -0.2696
     20 C          64.6119   83.9398   15.0096 C.3     1  UNL1        0.0897
     21 C          62.1671   84.6566   15.5188 C.3     1  UNL1        0.0897
     22 O          58.7434   89.4077    6.3149 O.3     1  UNL1       -0.4706
     23 C          59.1360   90.8549    6.2738 C.3     1  UNL1        0.2320
     24 C          59.8582   91.4024    5.0786 C.ar    1  UNL1        0.0214
     25 C          59.2098   92.4533    4.2271 C.ar    1  UNL1        0.0024
     26 C          59.9319   93.0010    3.0318 C.ar    1  UNL1        0.0367
     27 C          61.3025   92.4976    2.6881 C.ar    1  UNL1        0.1382
     28 C          61.9509   91.4466    3.5396 C.ar    1  UNL1        0.0367
     29 C          61.2287   90.8991    4.7348 C.ar    1  UNL1        0.0024
     30 O          62.0246   93.0452    1.4928 O.3     1  UNL1       -0.4826
     31 C          61.2530   93.4580    0.2746 C.3     1  UNL1        0.1334
     32 C          61.5318   94.8985    0.5862 C.3     1  UNL1        0.0436
     33 C          60.9742   92.0175   -0.0370 C.3     1  UNL1        0.0436
     34 C          60.4814   93.8710   -0.9437 C.3     1  UNL1        0.0436
@<TRIPOS>BOND
     1    17    18    1
     2    18    11    1
     3    11     1    1
     4     1     2   ar
     5     2     3   ar
     6     3     4   ar
     7     4     5   ar
     8     5     6   ar
     9     6    22    1
    10    22    23    1
    11    23    24    1
    12    24    25   ar
    13    25    26   ar
    14    26    27   ar
    15    27    30    1
    16    30    31    1
    17    31    32    1
    18    31    33    1
    19    31    34    1
    20    27    28   ar
    21    28    29   ar
    22     6     7   ar
    23     7     8   ar
    24     8     9   ar
    25     9    10   ar
    26    11    12    1
    27    12    13   ar
    28    13    14   ar
    29    14    15   ar
    30    15    16   ar
    31    18    19    1
    32    19    20    1
    33    19    21    1
    34    10     1   ar
    35    16    12   ar
    36     9     4   ar
    37    29    24   ar
@<TRIPOS>MOLECULE
*****
 34 37 0 0 0
SMALL
GASTEIGER

@<TRIPOS>ATOM
      1 C          63.5265   85.2533   12.9682 C.ar    1  UNL1       -0.0004
      2 C          64.1257   85.1542   14.3397 C.ar    1  UNL1       -0.0024
      3 C          64.3807   86.3980   15.1384 C.ar    1  UNL1       -0.0002
      4 C          64.0365   87.7409   14.5656 C.ar    1  UNL1        0.0030
      5 C          64.2915   88.9847   15.3643 C.ar    1  UNL1        0.0369
      6 C          63.9473   90.3276   14.7915 C.ar    1  UNL1        0.1391
      7 C          63.3480   90.4267   13.4199 C.ar    1  UNL1        0.0369
      8 C          63.0929   89.1829   12.6213 C.ar    1  UNL1        0.0031
      9 C          63.4372   87.8400   13.1941 C.ar    1  UNL1       -0.0001
     10 C          63.1822   86.5962   12.3954 C.ar    1  UNL1       -0.0024
     11 C          63.2714   84.0095   12.1695 C.3     1  UNL1        0.1240
     12 N          62.8418   82.7494   12.8605 N.ar    1  UNL1       -0.3045
     13 C          63.1094   81.3505   12.3899 C.ar    1  UNL1        0.0983
     14 C          62.5021   80.4034   13.3820 C.ar    1  UNL1        0.1193
     15 N          61.8592   81.2170   14.4659 N.ar    1  UNL1       -0.2223
     16 C          62.0691   82.6668   14.1436 C.ar    1  UNL1        0.1788
     17 C          64.4346   83.1034   10.0303 C.3     1  UNL1        0.0197
     18 C          63.4460   84.0258   10.6798 C.3     1  UNL1        0.0827
     19 N          62.6320   84.9646    9.8395 N.3     1  UNL1       -0.2696
     20 C          61.3543   85.5371   10.3780 C.3     1  UNL1        0.0897
     21 C          63.0955   85.3308    8.4608 C.3     1  UNL1        0.0897
     22 O          64.2023   91.5714   15.5902 O.3     1  UNL1       -0.4706
     23 C          65.5491   92.2302   15.5428 C.3     1  UNL1        0.2320
     24 C          66.3283   92.2529   14.2613 C.ar    1  UNL1        0.0214
     25 C          65.6650   92.6868   12.9879 C.ar    1  UNL1        0.0024
     26 C          66.4442   92.7095   11.7063 C.ar    1  UNL1        0.0367
     27 C          67.8867   92.2983   11.6982 C.ar    1  UNL1        0.1382
     28 C          68.5500   91.8643   12.9718 C.ar    1  UNL1        0.0367
     29 C          67.7708   91.8416   14.2533 C.ar    1  UNL1        0.0024
     30 O          68.6659   92.3210   10.4167 O.3     1  UNL1       -0.4826
     31 C          68.2183   93.1942    9.2822 C.3     1  UNL1        0.1334
     32 C          67.6829   94.1945   10.2634 C.3     1  UNL1        0.0436
     33 C          68.7536   92.1939    8.3011 C.3     1  UNL1        0.0436
     34 C          67.7706   94.0675    8.1477 C.3     1  UNL1        0.0436
@<TRIPOS>BOND
     1    17    18    1
     2    18    11    1
     3    11     1    1
     4     1     2   ar
     5     2     3   ar
     6     3     4   ar
     7     4     5   ar
     8     5     6   ar
     9     6    22    1
    10    22    23    1
    11    23    24    1
    12    24    25   ar
    13    25    26   ar
    14    26    27   ar
    15    27    30    1
    16    30    31    1
    17    31    32    1
    18    31    33    1
    19    31    34    1
    20    27    28   ar
    21    28    29   ar
    22     6     7   ar
    23     7     8   ar
    24     8     9   ar
    25     9    10   ar
    26    11    12    1
    27    12    13   ar
    28    13    14   ar
    29    14    15   ar
    30    15    16   ar
    31    18    19    1
    32    19    20    1
    33    19    21    1
    34    10     1   ar
    35    16    12   ar
    36     9     4   ar
    37    29    24   ar
