@<TRIPOS>MOLECULE
*****
 36 38 0 0 0
SMALL
GASTEIGER

@<TRIPOS>ATOM
      1 C          62.0258   87.0814    9.4742 C.ar    1  UNL1        0.0161
      2 C          62.9113   88.1230   10.0916 C.ar    1  UNL1        0.0001
      3 C          62.3317   89.4342   10.5330 C.ar    1  UNL1        0.0380
      4 C          60.8666   89.7038   10.3571 C.ar    1  UNL1        0.1399
      5 C          59.9812   88.6622    9.7398 C.ar    1  UNL1        0.0732
      6 C          60.5608   87.3510    9.2984 C.ar    1  UNL1        0.1380
      7 C          63.2171   90.4758   11.1503 C.3     1  UNL1        0.1368
      8 O          62.9452   91.1187    9.8226 O.3     1  UNL1       -0.3801
      9 C          63.1816   89.4712   12.2636 C.3     1  UNL1        0.0388
     10 C          63.9370   89.7314   13.5330 C.3     1  UNL1        0.0614
     11 C          64.7280   90.9963   13.6892 C.3     1  UNL1        0.1421
     12 O          65.4835   91.2566   14.9587 O.3     1  UNL1       -0.3818
     13 C          64.7635   92.0009   12.5759 C.3     1  UNL1        0.1666
     14 O          65.5545   93.2659   12.7321 O.3     1  UNL1       -0.3795
     15 C          64.0081   91.7407   11.3064 C.3     1  UNL1        0.1679
     16 O          64.0436   92.7453   10.1932 O.3     1  UNL1       -0.3793
     17 H          62.3676   90.5433    9.2970 H       1  UNL1        0.2108
     18 H          65.3554   90.5138   15.5692 H       1  UNL1        0.2104
     19 H          65.9784   93.2765   13.6045 H       1  UNL1        0.2105
     20 H          64.5956   93.4987   10.4550 H       1  UNL1        0.2106
     21 C          63.9015   88.7267   14.6463 C.3     1  UNL1        0.1397
     22 O          63.3115   89.0993   15.9742 O.3     1  UNL1       -0.3819
     23 H          63.8586   89.7836   16.3904 H       1  UNL1        0.2104
     24 O          60.2870   91.0150   10.7986 O.3     1  UNL1       -0.4716
     25 C          59.0010   91.0448   11.5702 C.3     1  UNL1        0.2525
     26 O          59.6753   86.3094    8.6811 O.3     1  UNL1       -0.4716
     27 C          58.8495   86.6462    7.4750 C.3     1  UNL1        0.2525
     28 C          62.6054   85.7702    9.0328 C.3     1  UNL1        0.0557
     29 C          63.5773   82.6012   12.0763 C.ar    1  UNL1       -0.0222
     30 C          64.1671   82.5246   10.6993 C.ar    1  UNL1       -0.0046
     31 C          63.8432   83.5810    9.6848 C.ar    1  UNL1       -0.0043
     32 C          62.9294   84.7139   10.0473 C.ar    1  UNL1       -0.0177
     33 C          62.3395   84.7904   11.4243 C.ar    1  UNL1       -0.0043
     34 C          62.6635   83.7340   12.4388 C.ar    1  UNL1       -0.0046
     35 C          62.8230   80.6303   13.5917 C.3     1  UNL1        0.0050
     36 C          63.9012   81.5448   13.0907 C.3     1  UNL1        0.0264
@<TRIPOS>BOND
     1    35    36    1
     2    36    29    1
     3    29    30   ar
     4    30    31   ar
     5    31    32   ar
     6    32    28    1
     7    28     1    1
     8     1     2   ar
     9     2     3   ar
    10     3     7    1
    11     7     8    1
    12     7     9    1
    13     9    10    1
    14    10    21    1
    15    21    22    1
    16    10    11    1
    17    11    12    1
    18    11    13    1
    19    13    14    1
    20    13    15    1
    21    15    16    1
    22     3     4   ar
    23     4    24    1
    24    24    25    1
    25     4     5   ar
    26     5     6   ar
    27     6    26    1
    28    26    27    1
    29    32    33   ar
    30    33    34   ar
    31    34    29   ar
    32     6     1   ar
    33    15     7    1
    34     8    17    1
    35    22    23    1
    36    12    18    1
    37    14    19    1
    38    16    20    1
@<TRIPOS>MOLECULE
*****
 36 38 0 0 0
SMALL
GASTEIGER

@<TRIPOS>ATOM
      1 C          62.0660   87.2854    9.5256 C.ar    1  UNL1        0.0161
      2 C          62.7065   87.9952   10.6816 C.ar    1  UNL1        0.0001
      3 C          62.1050   89.2641   11.2089 C.ar    1  UNL1        0.0380
      4 C          60.8631   89.8232   10.5804 C.ar    1  UNL1        0.1399
      5 C          60.2226   89.1135    9.4245 C.ar    1  UNL1        0.0732
      6 C          60.8241   87.8445    8.8971 C.ar    1  UNL1        0.1380
      7 C          62.7454   89.9739   12.3648 C.3     1  UNL1        0.1368
      8 O          61.8118   89.0618   13.1041 O.3     1  UNL1       -0.3801
      9 C          63.4566   90.6395   11.2241 C.3     1  UNL1        0.0388
     10 C          64.4839   91.6981   11.4960 C.3     1  UNL1        0.0614
     11 C          64.8001   92.0911   12.9087 C.3     1  UNL1        0.1421
     12 O          65.8274   93.1497   13.1806 O.3     1  UNL1       -0.3818
     13 C          64.0889   91.4255   14.0494 C.3     1  UNL1        0.1666
     14 O          64.4051   91.8185   15.4620 O.3     1  UNL1       -0.3795
     15 C          63.0616   90.3669   13.7775 C.3     1  UNL1        0.1679
     16 O          62.3504   89.7013   14.9182 O.3     1  UNL1       -0.3793
     17 H          61.3145   88.5239   12.4684 H       1  UNL1        0.2108
     18 H          66.1879   93.4738   12.3404 H       1  UNL1        0.2104
     19 H          65.0852   92.5101   15.4607 H       1  UNL1        0.2105
     20 H          62.6701   90.0689   15.7570 H       1  UNL1        0.2106
     21 C          65.1951   92.3636   10.3552 C.3     1  UNL1        0.1397
     22 O          65.2890   93.8597   10.3006 O.3     1  UNL1       -0.3819
     23 H          64.4027   94.2351   10.1806 H       1  UNL1        0.2104
     24 O          60.2616   91.0922   11.1078 O.3     1  UNL1       -0.4716
     25 C          58.8659   91.0888   11.6574 C.3     1  UNL1        0.2525
     26 O          60.1837   87.1348    7.7413 O.3     1  UNL1       -0.4716
     27 C          58.7353   86.7501    7.8067 C.3     1  UNL1        0.2525
     28 C          62.6675   86.0165    8.9983 C.3     1  UNL1        0.0557
     29 C          63.4817   82.5824   11.7900 C.ar    1  UNL1       -0.0222
     30 C          64.0969   82.5990   10.4222 C.ar    1  UNL1       -0.0046
     31 C          63.8255   83.7438    9.4916 C.ar    1  UNL1       -0.0043
     32 C          62.9389   84.8718    9.9289 C.ar    1  UNL1       -0.0177
     33 C          62.3236   84.8551   11.2967 C.ar    1  UNL1       -0.0043
     34 C          62.5950   83.7104   12.2273 C.ar    1  UNL1       -0.0046
     35 C          62.6297   80.5465   13.1609 C.3     1  UNL1        0.0050
     36 C          63.7530   81.4377   12.7206 C.3     1  UNL1        0.0264
@<TRIPOS>BOND
     1    35    36    1
     2    36    29    1
     3    29    30   ar
     4    30    31   ar
     5    31    32   ar
     6    32    28    1
     7    28     1    1
     8     1     2   ar
     9     2     3   ar
    10     3     7    1
    11     7     8    1
    12     7     9    1
    13     9    10    1
    14    10    21    1
    15    21    22    1
    16    10    11    1
    17    11    12    1
    18    11    13    1
    19    13    14    1
    20    13    15    1
    21    15    16    1
    22     3     4   ar
    23     4    24    1
    24    24    25    1
    25     4     5   ar
    26     5     6   ar
    27     6    26    1
    28    26    27    1
    29    32    33   ar
    30    33    34   ar
    31    34    29   ar
    32     6     1   ar
    33    15     7    1
    34     8    17    1
    35    22    23    1
    36    12    18    1
    37    14    19    1
    38    16    20    1
@<TRIPOS>MOLECULE
*****
 36 38 0 0 0
SMALL
GASTEIGER

@<TRIPOS>ATOM
      1 C          63.9510   90.7945   13.2577 C.ar    1  UNL1        0.0161
      2 C          64.4051   91.9565   12.4248 C.ar    1  UNL1        0.0001
      3 C          65.7476   92.5779   12.6730 C.ar    1  UNL1        0.0380
      4 C          66.6360   92.0374   13.7540 C.ar    1  UNL1        0.1399
      5 C          66.1819   90.8754   14.5868 C.ar    1  UNL1        0.0732
      6 C          64.8394   90.2540   14.3387 C.ar    1  UNL1        0.1380
      7 C          66.2017   93.7399   11.8401 C.3     1  UNL1        0.1368
      8 O          65.4984   94.4707   12.9453 O.3     1  UNL1       -0.3801
      9 C          66.7473   92.6057   11.0242 C.3     1  UNL1        0.0388
     10 C          67.5028   92.8871    9.7593 C.3     1  UNL1        0.0614
     11 C          67.7126   94.3029    9.3103 C.3     1  UNL1        0.1421
     12 O          68.4681   94.5844    8.0454 O.3     1  UNL1       -0.3818
     13 C          67.1670   95.4371   10.1263 C.3     1  UNL1        0.1666
     14 O          67.3768   96.8529    9.6772 O.3     1  UNL1       -0.3795
     15 C          66.4115   95.1557   11.3912 C.3     1  UNL1        0.1679
     16 O          65.8659   96.2899   12.2071 O.3     1  UNL1       -0.3793
     17 H          65.1412   93.8303   13.5803 H       1  UNL1        0.2108
     18 H          68.7491   93.7474    7.6436 H       1  UNL1        0.2104
     19 H          67.8801   96.8579    8.8480 H       1  UNL1        0.2105
     20 H          66.0881   97.1318   11.7796 H       1  UNL1        0.2106
     21 C          68.0484   91.7528    8.9434 C.3     1  UNL1        0.1397
     22 O          69.2010   91.9854    8.0121 O.3     1  UNL1       -0.3819
     23 H          68.9246   92.5808    7.2980 H       1  UNL1        0.2104
     24 O          67.9785   92.6588   14.0021 O.3     1  UNL1       -0.4716
     25 C          68.3520   93.1110   15.3827 C.3     1  UNL1        0.2525
     26 O          64.3853   89.0921   15.1716 O.3     1  UNL1       -0.4716
     27 C          63.3763   89.2997   16.2619 C.3     1  UNL1        0.2525
     28 C          62.6085   90.1732   13.0096 C.3     1  UNL1        0.0557
     29 C          62.1156   87.1071    9.7528 C.ar    1  UNL1       -0.0222
     30 C          62.6049   86.6898   11.1079 C.ar    1  UNL1       -0.0046
     31 C          62.7692   87.7118   12.1935 C.ar    1  UNL1       -0.0043
     32 C          62.4442   89.1512   11.9240 C.ar    1  UNL1       -0.0177
     33 C          61.9549   89.5685   10.5689 C.ar    1  UNL1       -0.0043
     34 C          61.7906   88.5464    9.4833 C.ar    1  UNL1       -0.0046
     35 C          63.1068   85.2111    8.2788 C.3     1  UNL1        0.0050
     36 C          61.9513   86.0851    8.6672 C.3     1  UNL1        0.0264
@<TRIPOS>BOND
     1    35    36    1
     2    36    29    1
     3    29    30   ar
     4    30    31   ar
     5    31    32   ar
     6    32    28    1
     7    28     1    1
     8     1     2   ar
     9     2     3   ar
    10     3     7    1
    11     7     8    1
    12     7     9    1
    13     9    10    1
    14    10    21    1
    15    21    22    1
    16    10    11    1
    17    11    12    1
    18    11    13    1
    19    13    14    1
    20    13    15    1
    21    15    16    1
    22     3     4   ar
    23     4    24    1
    24    24    25    1
    25     4     5   ar
    26     5     6   ar
    27     6    26    1
    28    26    27    1
    29    32    33   ar
    30    33    34   ar
    31    34    29   ar
    32     6     1   ar
    33    15     7    1
    34     8    17    1
    35    22    23    1
    36    12    18    1
    37    14    19    1
    38    16    20    1
@<TRIPOS>MOLECULE
*****
 36 38 0 0 0
SMALL
GASTEIGER

@<TRIPOS>ATOM
      1 C          62.1993   89.0366   11.9510 C.ar    1  UNL1        0.0161
      2 C          62.7892   87.6678   11.7822 C.ar    1  UNL1        0.0001
      3 C          62.1480   86.6847   10.8482 C.ar    1  UNL1        0.0380
      4 C          60.9169   87.0704   10.0829 C.ar    1  UNL1        0.1399
      5 C          60.3270   88.4392   10.2517 C.ar    1  UNL1        0.0732
      6 C          60.9682   89.4223   11.1857 C.ar    1  UNL1        0.1380
      7 C          62.7378   85.3159   10.6794 C.3     1  UNL1        0.1368
      8 O          62.7751   85.7928    9.2577 O.3     1  UNL1       -0.3801
      9 C          62.4957   85.3144   12.1597 C.3     1  UNL1        0.0388
     10 C          62.8564   84.1098   12.9775 C.3     1  UNL1        0.0614
     11 C          63.4592   82.9066   12.3149 C.3     1  UNL1        0.1421
     12 O          63.8199   81.7020   13.1326 O.3     1  UNL1       -0.3818
     13 C          63.7013   82.9082   10.8345 C.3     1  UNL1        0.1666
     14 O          64.3041   81.7050   10.1720 O.3     1  UNL1       -0.3795
     15 C          63.3406   84.1128   10.0168 C.3     1  UNL1        0.1679
     16 O          63.5828   84.1143    8.5365 O.3     1  UNL1       -0.3793
     17 H          62.4140   86.6917    9.2085 H       1  UNL1        0.2108
     18 H          63.6002   81.8653   14.0632 H       1  UNL1        0.2104
     19 H          64.4758   81.0211   10.8381 H       1  UNL1        0.2105
     20 H          63.9741   83.2670    8.2720 H       1  UNL1        0.2106
     21 C          62.6142   84.1084   14.4578 C.3     1  UNL1        0.1397
     22 O          62.4852   82.8086   15.1953 O.3     1  UNL1       -0.3819
     23 H          61.6850   82.3471   14.8994 H       1  UNL1        0.2104
     24 O          60.2756   86.0873    9.1489 O.3     1  UNL1       -0.4716
     25 C          59.4734   86.5769    7.9798 C.3     1  UNL1        0.2525
     26 O          60.3783   90.7911   11.3545 O.3     1  UNL1       -0.4716
     27 C          58.9163   90.9462   11.6519 C.3     1  UNL1        0.2525
     28 C          62.8405   90.0197   12.8850 C.3     1  UNL1        0.0557
     29 C          65.8534   92.9736   11.3210 C.ar    1  UNL1       -0.0222
     30 C          64.8382   92.3752   10.3930 C.ar    1  UNL1       -0.0046
     31 C          63.8339   91.3906   10.9143 C.ar    1  UNL1       -0.0043
     32 C          63.8448   91.0043   12.3637 C.ar    1  UNL1       -0.0177
     33 C          64.8600   91.6027   13.2916 C.ar    1  UNL1       -0.0043
     34 C          65.8643   92.5874   12.7703 C.ar    1  UNL1       -0.0046
     35 C          67.4284   93.7898    9.4227 C.3     1  UNL1        0.0050
     36 C          66.8577   93.9583   10.7996 C.3     1  UNL1        0.0264
@<TRIPOS>BOND
     1    35    36    1
     2    36    29    1
     3    29    30   ar
     4    30    31   ar
     5    31    32   ar
     6    32    28    1
     7    28     1    1
     8     1     2   ar
     9     2     3   ar
    10     3     7    1
    11     7     8    1
    12     7     9    1
    13     9    10    1
    14    10    21    1
    15    21    22    1
    16    10    11    1
    17    11    12    1
    18    11    13    1
    19    13    14    1
    20    13    15    1
    21    15    16    1
    22     3     4   ar
    23     4    24    1
    24    24    25    1
    25     4     5   ar
    26     5     6   ar
    27     6    26    1
    28    26    27    1
    29    32    33   ar
    30    33    34   ar
    31    34    29   ar
    32     6     1   ar
    33    15     7    1
    34     8    17    1
    35    22    23    1
    36    12    18    1
    37    14    19    1
    38    16    20    1
@<TRIPOS>MOLECULE
*****
 36 38 0 0 0
SMALL
GASTEIGER

@<TRIPOS>ATOM
      1 C          63.8715   87.0561   15.2797 C.ar    1  UNL1        0.0161
      2 C          64.2554   88.0712   14.2441 C.ar    1  UNL1        0.0001
      3 C          64.0950   89.5344   14.5325 C.ar    1  UNL1        0.0380
      4 C          63.5507   89.9826   15.8564 C.ar    1  UNL1        0.1399
      5 C          63.1668   88.9676   16.8920 C.ar    1  UNL1        0.0732
      6 C          63.3272   87.5043   16.6036 C.ar    1  UNL1        0.1380
      7 C          64.4789   90.5494   13.4969 C.3     1  UNL1        0.1368
      8 O          65.4968   90.8585   14.5545 O.3     1  UNL1       -0.3801
      9 C          63.3277   89.8879   12.7990 C.3     1  UNL1        0.0388
     10 C          62.9138   90.3487   11.4329 C.3     1  UNL1        0.0614
     11 C          63.6513   91.4711   10.7646 C.3     1  UNL1        0.1421
     12 O          63.2374   91.9319    9.3985 O.3     1  UNL1       -0.3818
     13 C          64.8025   92.1326   11.4626 C.3     1  UNL1        0.1666
     14 O          65.5399   93.2550   10.7943 O.3     1  UNL1       -0.3795
     15 C          65.2163   91.6718   12.8287 C.3     1  UNL1        0.1679
     16 O          66.3675   92.3333   13.5266 O.3     1  UNL1       -0.3793
     17 H          65.3691   90.2634   15.3098 H       1  UNL1        0.2108
     18 H          62.4834   91.4033    9.0936 H       1  UNL1        0.2104
     19 H          65.1479   93.4263    9.9237 H       1  UNL1        0.2105
     20 H          66.7295   93.0332   12.9609 H       1  UNL1        0.2106
     21 C          61.7626   89.6872   10.7350 C.3     1  UNL1        0.1397
     22 O          60.7643   90.5169    9.9834 O.3     1  UNL1       -0.3819
     23 H          60.2760   91.0780   10.6060 H       1  UNL1        0.2104
     24 O          63.3903   91.4459   16.1448 O.3     1  UNL1       -0.4716
     25 C          64.4582   92.1836   16.8967 C.3     1  UNL1        0.2525
     26 O          62.9434   86.4893   17.6392 O.3     1  UNL1       -0.4716
     27 C          62.6350   86.9271   19.0403 C.3     1  UNL1        0.2525
     28 C          64.0320   85.5929   14.9913 C.3     1  UNL1        0.0557
     29 C          63.4841   84.0526   10.7988 C.ar    1  UNL1       -0.0222
     30 C          62.7165   85.2550   11.2623 C.ar    1  UNL1       -0.0046
     31 C          62.8991   85.7684   12.6598 C.ar    1  UNL1       -0.0043
     32 C          63.8493   85.0794   13.5938 C.ar    1  UNL1       -0.0177
     33 C          64.6169   83.8770   13.1302 C.ar    1  UNL1       -0.0043
     34 C          64.4343   83.3636   11.7327 C.ar    1  UNL1       -0.0046
     35 C          63.0802   84.5010    8.2718 C.3     1  UNL1        0.0050
     36 C          63.3015   83.5391    9.4012 C.3     1  UNL1        0.0264
@<TRIPOS>BOND
     1    35    36    1
     2    36    29    1
     3    29    30   ar
     4    30    31   ar
     5    31    32   ar
     6    32    28    1
     7    28     1    1
     8     1     2   ar
     9     2     3   ar
    10     3     7    1
    11     7     8    1
    12     7     9    1
    13     9    10    1
    14    10    21    1
    15    21    22    1
    16    10    11    1
    17    11    12    1
    18    11    13    1
    19    13    14    1
    20    13    15    1
    21    15    16    1
    22     3     4   ar
    23     4    24    1
    24    24    25    1
    25     4     5   ar
    26     5     6   ar
    27     6    26    1
    28    26    27    1
    29    32    33   ar
    30    33    34   ar
    31    34    29   ar
    32     6     1   ar
    33    15     7    1
    34     8    17    1
    35    22    23    1
    36    12    18    1
    37    14    19    1
    38    16    20    1
@<TRIPOS>MOLECULE
*****
 36 38 0 0 0
SMALL
GASTEIGER

@<TRIPOS>ATOM
      1 C          63.7659   86.7959   14.5926 C.ar    1  UNL1        0.0161
      2 C          63.5796   86.6189   13.1147 C.ar    1  UNL1        0.0001
      3 C          63.1099   85.3024   12.5704 C.ar    1  UNL1        0.0380
      4 C          62.8266   84.1629   13.5039 C.ar    1  UNL1        0.1399
      5 C          63.0130   84.3399   14.9817 C.ar    1  UNL1        0.0732
      6 C          63.4826   85.6564   15.5261 C.ar    1  UNL1        0.1380
      7 C          62.9236   85.1254   11.0925 C.3     1  UNL1        0.1368
      8 O          63.9914   84.1026   11.3448 O.3     1  UNL1       -0.3801
      9 C          61.9205   86.2096   11.3535 C.3     1  UNL1        0.0388
     10 C          61.1018   86.7616   10.2243 C.3     1  UNL1        0.0614
     11 C          61.2864   86.2293    8.8341 C.3     1  UNL1        0.1421
     12 O          60.4678   86.7814    7.7049 O.3     1  UNL1       -0.3818
     13 C          62.2895   85.1451    8.5732 C.3     1  UNL1        0.1666
     14 O          62.4741   84.6128    7.1830 O.3     1  UNL1       -0.3795
     15 C          63.1081   84.5931    9.7024 C.3     1  UNL1        0.1679
     16 O          64.1112   83.5088    9.4414 O.3     1  UNL1       -0.3793
     17 H          64.2222   84.1017   12.2870 H       1  UNL1        0.2108
     18 H          59.8733   87.4694    8.0427 H       1  UNL1        0.2104
     19 H          61.8726   85.0740    6.5777 H       1  UNL1        0.2105
     20 H          64.1043   83.2821    8.4983 H       1  UNL1        0.2106
     21 C          60.0987   87.8459   10.4853 C.3     1  UNL1        0.1397
     22 O          59.6450   88.1261   11.8873 O.3     1  UNL1       -0.3819
     23 H          59.1511   87.3629   12.2259 H       1  UNL1        0.2104
     24 O          62.3570   82.8464   12.9594 O.3     1  UNL1       -0.4716
     25 C          62.2044   81.6678   13.8747 C.3     1  UNL1        0.2525
     26 O          63.6690   85.8334   17.0039 O.3     1  UNL1       -0.4716
     27 C          62.5704   86.4309   17.8321 C.3     1  UNL1        0.2525
     28 C          64.2355   88.1123   15.1369 C.3     1  UNL1        0.0557
     29 C          64.7255   91.6391   12.3852 C.ar    1  UNL1       -0.0222
     30 C          65.6001   91.5057   13.5965 C.ar    1  UNL1       -0.0046
     31 C          65.4367   90.3301   14.5138 C.ar    1  UNL1       -0.0043
     32 C          64.3989   89.2879   14.2197 C.ar    1  UNL1       -0.0177
     33 C          63.5243   89.4213   13.0084 C.ar    1  UNL1       -0.0043
     34 C          63.6877   90.5968   12.0911 C.ar    1  UNL1       -0.0046
     35 C          66.1600   92.9888   10.6910 C.3     1  UNL1        0.0050
     36 C          64.8889   92.8146   11.4679 C.3     1  UNL1        0.0264
@<TRIPOS>BOND
     1    35    36    1
     2    36    29    1
     3    29    30   ar
     4    30    31   ar
     5    31    32   ar
     6    32    28    1
     7    28     1    1
     8     1     2   ar
     9     2     3   ar
    10     3     7    1
    11     7     8    1
    12     7     9    1
    13     9    10    1
    14    10    21    1
    15    21    22    1
    16    10    11    1
    17    11    12    1
    18    11    13    1
    19    13    14    1
    20    13    15    1
    21    15    16    1
    22     3     4   ar
    23     4    24    1
    24    24    25    1
    25     4     5   ar
    26     5     6   ar
    27     6    26    1
    28    26    27    1
    29    32    33   ar
    30    33    34   ar
    31    34    29   ar
    32     6     1   ar
    33    15     7    1
    34     8    17    1
    35    22    23    1
    36    12    18    1
    37    14    19    1
    38    16    20    1
@<TRIPOS>MOLECULE
*****
 36 38 0 0 0
SMALL
GASTEIGER

@<TRIPOS>ATOM
      1 C          63.8920   87.2430   15.1272 C.ar    1  UNL1        0.0161
      2 C          64.1583   88.2263   14.0261 C.ar    1  UNL1        0.0001
      3 C          64.0050   89.6966   14.2801 C.ar    1  UNL1        0.0380
      4 C          63.5855   90.1838   15.6354 C.ar    1  UNL1        0.1399
      5 C          63.3192   89.2007   16.7365 C.ar    1  UNL1        0.0732
      6 C          63.4725   87.7303   16.4824 C.ar    1  UNL1        0.1380
      7 C          64.2713   90.6798   13.1790 C.3     1  UNL1        0.1368
      8 O          62.9375   90.1521   12.7402 O.3     1  UNL1       -0.3801
      9 C          65.5126   90.8660   14.0002 C.3     1  UNL1        0.0388
     10 C          66.5570   91.8520   13.5679 C.3     1  UNL1        0.0614
     11 C          66.3600   92.6520   12.3143 C.3     1  UNL1        0.1421
     12 O          67.4044   93.6381   11.8821 O.3     1  UNL1       -0.3818
     13 C          65.1187   92.4657   11.4932 C.3     1  UNL1        0.1666
     14 O          64.9217   93.2657   10.2396 O.3     1  UNL1       -0.3795
     15 C          64.0743   91.4796   11.9255 C.3     1  UNL1        0.1679
     16 O          62.8330   91.2935   11.1043 O.3     1  UNL1       -0.3793
     17 H          62.6285   89.4865   13.3744 H       1  UNL1        0.2108
     18 H          68.1358   93.6346   12.5192 H       1  UNL1        0.2104
     19 H          65.6838   93.8507   10.1063 H       1  UNL1        0.2105
     20 H          62.8637   91.8820   10.3338 H       1  UNL1        0.2106
     21 C          67.7984   92.0382   14.3892 C.3     1  UNL1        0.1397
     22 O          69.1441   92.0289   13.7268 O.3     1  UNL1       -0.3819
     23 H          69.3200   91.1466   13.3643 H       1  UNL1        0.2104
     24 O          63.4322   91.6542   15.8894 O.3     1  UNL1       -0.4716
     25 C          64.4095   92.3680   16.7756 C.3     1  UNL1        0.2525
     26 O          63.2062   86.7471   17.5836 O.3     1  UNL1       -0.4716
     27 C          62.0241   85.8276   17.4984 C.3     1  UNL1        0.2525
     28 C          64.0453   85.7727   14.8731 C.3     1  UNL1        0.0557
     29 C          63.4363   84.1301   10.7281 C.ar    1  UNL1       -0.0222
     30 C          62.7070   85.3680   11.1590 C.ar    1  UNL1       -0.0046
     31 C          62.9100   85.9156   12.5406 C.ar    1  UNL1       -0.0043
     32 C          63.8423   85.2252   13.4915 C.ar    1  UNL1       -0.0177
     33 C          64.5715   83.9873   13.0607 C.ar    1  UNL1       -0.0043
     34 C          64.3685   83.4397   11.6790 C.ar    1  UNL1       -0.0046
     35 C          62.9479   84.5133    8.2053 C.3     1  UNL1        0.0050
     36 C          63.2333   83.5826    9.3465 C.3     1  UNL1        0.0264
@<TRIPOS>BOND
     1    35    36    1
     2    36    29    1
     3    29    30   ar
     4    30    31   ar
     5    31    32   ar
     6    32    28    1
     7    28     1    1
     8     1     2   ar
     9     2     3   ar
    10     3     7    1
    11     7     8    1
    12     7     9    1
    13     9    10    1
    14    10    21    1
    15    21    22    1
    16    10    11    1
    17    11    12    1
    18    11    13    1
    19    13    14    1
    20    13    15    1
    21    15    16    1
    22     3     4   ar
    23     4    24    1
    24    24    25    1
    25     4     5   ar
    26     5     6   ar
    27     6    26    1
    28    26    27    1
    29    32    33   ar
    30    33    34   ar
    31    34    29   ar
    32     6     1   ar
    33    15     7    1
    34     8    17    1
    35    22    23    1
    36    12    18    1
    37    14    19    1
    38    16    20    1
@<TRIPOS>MOLECULE
*****
 36 38 0 0 0
SMALL
GASTEIGER

@<TRIPOS>ATOM
      1 C          62.4036   89.0607   11.6305 C.ar    1  UNL1        0.0161
      2 C          63.1155   89.6060   12.8330 C.ar    1  UNL1        0.0001
      3 C          63.8925   90.8847   12.7288 C.ar    1  UNL1        0.0380
      4 C          63.9577   91.6183   11.4221 C.ar    1  UNL1        0.1399
      5 C          63.2459   91.0731   10.2196 C.ar    1  UNL1        0.0732
      6 C          62.4689   89.7943   10.3237 C.ar    1  UNL1        0.1380
      7 C          64.6043   91.4300   13.9314 C.3     1  UNL1        0.1368
      8 O          63.2134   91.3162   14.4814 O.3     1  UNL1       -0.3801
      9 C          65.7480   91.3544   12.9638 C.3     1  UNL1        0.0388
     10 C          67.1204   91.7846   13.3896 C.3     1  UNL1        0.0614
     11 C          67.3492   92.2903   14.7832 C.3     1  UNL1        0.1421
     12 O          68.7216   92.7204   15.2091 O.3     1  UNL1       -0.3818
     13 C          66.2054   92.3658   15.7508 C.3     1  UNL1        0.1666
     14 O          66.4342   92.8715   17.1443 O.3     1  UNL1       -0.3795
     15 C          64.8330   91.9357   15.3249 C.3     1  UNL1        0.1679
     16 O          63.6894   92.0112   16.2925 O.3     1  UNL1       -0.3793
     17 H          62.6225   90.9663   13.7963 H       1  UNL1        0.2108
     18 H          69.3395   92.6085   14.4698 H       1  UNL1        0.2104
     19 H          67.3692   93.1054   17.2540 H       1  UNL1        0.2105
     20 H          64.0065   92.3569   17.1415 H       1  UNL1        0.2106
     21 C          68.2641   91.7090   12.4220 C.3     1  UNL1        0.1397
     22 O          69.6731   91.6333   12.9307 O.3     1  UNL1       -0.3819
     23 H          69.8982   92.4610   13.3838 H       1  UNL1        0.2104
     24 O          64.7348   92.8972   11.3179 O.3     1  UNL1       -0.4716
     25 C          65.6891   93.1042   10.1792 C.3     1  UNL1        0.2525
     26 O          61.7571   89.2491    9.1212 O.3     1  UNL1       -0.4716
     27 C          60.2623   89.3358    9.0312 C.3     1  UNL1        0.2525
     28 C          61.6266   87.7819   11.7347 C.3     1  UNL1        0.0557
     29 C          63.5614   83.8759   10.6168 C.ar    1  UNL1       -0.0222
     30 C          63.0206   84.7782    9.5475 C.ar    1  UNL1       -0.0046
     31 C          62.3757   86.0802    9.9201 C.ar    1  UNL1       -0.0043
     32 C          62.2715   86.4799   11.3621 C.ar    1  UNL1       -0.0177
     33 C          62.8122   85.5777   12.4314 C.ar    1  UNL1       -0.0043
     34 C          63.4572   84.2757   12.0588 C.ar    1  UNL1       -0.0046
     35 C          63.4630   81.2858   10.4394 C.3     1  UNL1        0.0050
     36 C          64.2063   82.5739   10.2442 C.3     1  UNL1        0.0264
@<TRIPOS>BOND
     1    35    36    1
     2    36    29    1
     3    29    30   ar
     4    30    31   ar
     5    31    32   ar
     6    32    28    1
     7    28     1    1
     8     1     2   ar
     9     2     3   ar
    10     3     7    1
    11     7     8    1
    12     7     9    1
    13     9    10    1
    14    10    21    1
    15    21    22    1
    16    10    11    1
    17    11    12    1
    18    11    13    1
    19    13    14    1
    20    13    15    1
    21    15    16    1
    22     3     4   ar
    23     4    24    1
    24    24    25    1
    25     4     5   ar
    26     5     6   ar
    27     6    26    1
    28    26    27    1
    29    32    33   ar
    30    33    34   ar
    31    34    29   ar
    32     6     1   ar
    33    15     7    1
    34     8    17    1
    35    22    23    1
    36    12    18    1
    37    14    19    1
    38    16    20    1
@<TRIPOS>MOLECULE
*****
 36 38 0 0 0
SMALL
GASTEIGER

@<TRIPOS>ATOM
      1 C          63.7028   90.0504   14.2756 C.ar    1  UNL1        0.0161
      2 C          63.9555   88.7001   13.6730 C.ar    1  UNL1        0.0001
      3 C          63.9162   87.4742   14.5365 C.ar    1  UNL1        0.0380
      4 C          63.6242   87.5985   16.0025 C.ar    1  UNL1        0.1399
      5 C          63.3715   88.9487   16.6051 C.ar    1  UNL1        0.0732
      6 C          63.4108   90.1747   15.7417 C.ar    1  UNL1        0.1380
      7 C          64.1689   86.1240   13.9339 C.3     1  UNL1        0.1368
      8 O          65.1933   86.1161   15.0297 O.3     1  UNL1       -0.3801
      9 C          63.0569   86.6008   13.0474 C.3     1  UNL1        0.0388
     10 C          62.5532   85.7247   11.9389 C.3     1  UNL1        0.0614
     11 C          63.1617   84.3717   11.7170 C.3     1  UNL1        0.1421
     12 O          62.6580   83.4956   10.6085 O.3     1  UNL1       -0.3818
     13 C          64.2738   83.8950   12.6035 C.3     1  UNL1        0.1666
     14 O          64.8823   82.5420   12.3815 O.3     1  UNL1       -0.3795
     15 C          64.7774   84.7711   13.7120 C.3     1  UNL1        0.1679
     16 O          65.8895   84.2942   14.5984 O.3     1  UNL1       -0.3793
     17 H          65.1475   86.9511   15.5211 H       1  UNL1        0.2108
     18 H          61.9438   83.9508   10.1356 H       1  UNL1        0.2104
     19 H          64.4447   82.1098   11.6314 H       1  UNL1        0.2105
     20 H          66.1661   83.4068   14.3212 H       1  UNL1        0.2106
     21 C          61.4411   86.2016   11.0524 C.3     1  UNL1        0.1397
     22 O          60.5043   87.2698   11.5334 O.3     1  UNL1       -0.3819
     23 H          59.9840   86.9318   12.2791 H       1  UNL1        0.2104
     24 O          63.5849   86.3725   16.8660 O.3     1  UNL1       -0.4716
     25 C          62.6734   86.3224   18.0562 C.3     1  UNL1        0.2525
     26 O          63.1581   91.5248   16.3442 O.3     1  UNL1       -0.4716
     27 C          64.3064   92.3484   16.8474 C.3     1  UNL1        0.2525
     28 C          63.7422   91.2763   13.4122 C.3     1  UNL1        0.0557
     29 C          67.4434   92.2409   11.0414 C.ar    1  UNL1       -0.0222
     30 C          67.5557   91.8768   12.4922 C.ar    1  UNL1       -0.0046
     31 C          66.3219   91.5553   13.2825 C.ar    1  UNL1       -0.0043
     32 C          64.9759   91.5978   12.6219 C.ar    1  UNL1       -0.0177
     33 C          64.8636   91.9619   11.1711 C.ar    1  UNL1       -0.0043
     34 C          66.0974   92.2834   10.3809 C.ar    1  UNL1       -0.0046
     35 C          68.6431   92.5089    8.7526 C.3     1  UNL1        0.0050
     36 C          68.6772   92.5624   10.2512 C.3     1  UNL1        0.0264
@<TRIPOS>BOND
     1    35    36    1
     2    36    29    1
     3    29    30   ar
     4    30    31   ar
     5    31    32   ar
     6    32    28    1
     7    28     1    1
     8     1     2   ar
     9     2     3   ar
    10     3     7    1
    11     7     8    1
    12     7     9    1
    13     9    10    1
    14    10    21    1
    15    21    22    1
    16    10    11    1
    17    11    12    1
    18    11    13    1
    19    13    14    1
    20    13    15    1
    21    15    16    1
    22     3     4   ar
    23     4    24    1
    24    24    25    1
    25     4     5   ar
    26     5     6   ar
    27     6    26    1
    28    26    27    1
    29    32    33   ar
    30    33    34   ar
    31    34    29   ar
    32     6     1   ar
    33    15     7    1
    34     8    17    1
    35    22    23    1
    36    12    18    1
    37    14    19    1
    38    16    20    1
