@<TRIPOS>MOLECULE
*****
 44 48 0 0 0
SMALL
GASTEIGER

@<TRIPOS>ATOM
      1 N          64.1953   90.5483   13.2362 N.am    1  UNL1       -0.2770
      2 C          63.0262   90.0228   12.4572 C.2     1  UNL1        0.2253
      3 O          62.0852   89.0399   13.0883 O.2     1  UNL1       -0.2749
      4 C          62.7982   90.4802   11.0470 C.3     1  UNL1        0.0755
      5 C          62.1672   90.6121    9.6926 C.3     1  UNL1        0.0095
      6 C          63.7392   91.4631   10.4158 C.3     1  UNL1        0.0154
      7 C          64.9083   91.9886   11.1949 C.3     1  UNL1        0.0452
      8 C          65.1363   91.5312   12.6051 C.3     1  UNL1        0.1018
      9 C          65.8493   92.9715   10.5637 C.ar    1  UNL1       -0.0197
     10 C          67.1642   92.5041   10.0138 C.ar    1  UNL1       -0.0042
     11 C          68.1052   93.4870    9.3826 C.ar    1  UNL1        0.0005
     12 C          67.7314   94.9373    9.3014 C.ar    1  UNL1        0.0114
     13 C          66.4164   95.4048    9.8513 C.ar    1  UNL1        0.0574
     14 CL         66.0425   96.8552    9.7701 Cl      1  UNL1       -0.0823
     15 C          65.4754   94.4219   10.4824 C.ar    1  UNL1        0.0072
     16 C          66.3055   92.0568   13.3842 C.ar    1  UNL1       -0.0039
     17 C          66.1801   93.3401   14.1506 C.ar    1  UNL1       -0.0018
     18 C          67.3492   93.8656   14.9298 C.ar    1  UNL1        0.0111
     19 C          68.6437   93.1079   14.9425 C.ar    1  UNL1        0.0577
     20 CL         69.8128   93.6334   15.7216 Cl      1  UNL1       -0.0822
     21 C          68.7691   91.8246   14.1760 C.ar    1  UNL1        0.0111
     22 C          67.5999   91.2990   13.3969 C.ar    1  UNL1       -0.0018
     23 C          64.4234   90.0910   14.6465 C.3     1  UNL1        0.0991
     24 C          64.1012   91.0037   15.7924 C.3     1  UNL1        0.0200
     25 C          63.1093   91.5614   16.7696 C.3     1  UNL1        0.0018
     26 C          64.5349   92.0270   16.7997 C.3     1  UNL1        0.0018
     27 C          64.9738   88.7209   14.9109 C.3     1  UNL1        0.1703
     28 S          64.1168   87.6834   15.5738 S.O2    1  UNL1       -0.0115
     29 O          63.2619   88.7659   16.1629 O.2     1  UNL1       -0.1730
     30 O          64.9718   86.6009   14.9846 O.2     1  UNL1       -0.1730
     31 C          62.8248   87.6566   17.2560 C.3     1  UNL1        0.0236
     32 C          63.2599   86.6459   16.2366 C.3     1  UNL1        0.1108
     33 C          63.6951   85.6353   15.2172 C.3     1  UNL1        0.0236
     34 C          62.4031   85.6085   16.8994 C.3     1  UNL1        0.0236
     35 C          61.6380   89.5431   11.2077 C.3     1  UNL1        0.0611
     36 C          61.6165   88.2413   10.4628 C.ar    1  UNL1        0.0883
     37 N          62.7348   87.2437   10.3986 N.ar    1  UNL1       -0.2466
     38 C          62.2823   86.0944    9.5475 C.ar    1  UNL1        0.0712
     39 C          60.8844   86.3817    9.0857 C.ar    1  UNL1        0.0516
     40 S          60.4729   87.7085    9.6514 S.2     1  UNL1       -0.0706
     41 C          63.0867   84.8722    9.2164 C.3     1  UNL1        0.0879
     42 C          63.4595   83.9036   10.2994 C.2     1  UNL1        0.0563
     43 O          62.7228   83.9195   11.6060 O.co2   1  UNL1       -0.5488
     44 O          64.5689   82.9191   10.0758 O.co2   1  UNL1       -0.5488
@<TRIPOS>UNITY_ATOM_ATTR
43 1
charge -1
@<TRIPOS>BOND
     1    31    32    1
     2    32    33    1
     3    32    34    1
     4    32    28    1
     5    28    29    2
     6    28    30    2
     7    28    27    1
     8    23    27    1
     9    23    24    1
    10    24    25    1
    11    25    26    1
    12    23     1    1
    13     1     2   am
    14     2     3    2
    15     2     4    1
    16     4     5    1
    17     4    35    1
    18    35    36    1
    19    36    37   ar
    20    37    38   ar
    21    38    41    1
    22    41    42    1
    23    42    43   ar
    24    42    44   ar
    25    38    39   ar
    26    39    40   ar
    27     4     6    1
    28     6     7    1
    29     7     9    1
    30     9    10   ar
    31    10    11   ar
    32    11    12   ar
    33    12    13   ar
    34    13    14    1
    35    13    15   ar
    36     7     8    1
    37     8    16    1
    38    16    17   ar
    39    17    18   ar
    40    18    19   ar
    41    19    20    1
    42    19    21   ar
    43    21    22   ar
    44    26    24    1
    45     8     1    1
    46    22    16   ar
    47    40    36   ar
    48    15     9   ar
@<TRIPOS>MOLECULE
*****
 44 48 0 0 0
SMALL
GASTEIGER

@<TRIPOS>ATOM
      1 N          64.1840   90.5774   13.2458 N.am    1  UNL1       -0.2770
      2 C          63.0031   90.0528   12.4842 C.2     1  UNL1        0.2253
      3 O          62.0650   89.0784   13.1327 O.2     1  UNL1       -0.2749
      4 C          62.7601   90.5026   11.0740 C.3     1  UNL1        0.0755
      5 C          62.1134   90.6293    9.7265 C.3     1  UNL1        0.0095
      6 C          63.6982   91.4770   10.4255 C.3     1  UNL1        0.0154
      7 C          64.8791   92.0016   11.1871 C.3     1  UNL1        0.0452
      8 C          65.1221   91.5518   12.5972 C.3     1  UNL1        0.1018
      9 C          65.8172   92.9760   10.5385 C.ar    1  UNL1       -0.0197
     10 C          67.1224   92.4986    9.9744 C.ar    1  UNL1       -0.0042
     11 C          68.0604   93.4730    9.3258 C.ar    1  UNL1        0.0005
     12 C          67.6932   94.9248    9.2414 C.ar    1  UNL1        0.0114
     13 C          66.3880   95.4023    9.8055 C.ar    1  UNL1        0.0574
     14 CL         66.0207   96.8542    9.7211 Cl      1  UNL1       -0.0823
     15 C          65.4499   94.4279   10.4541 C.ar    1  UNL1        0.0072
     16 C          66.3031   92.0764   13.3589 C.ar    1  UNL1       -0.0039
     17 C          67.5929   91.3107   13.3632 C.ar    1  UNL1       -0.0018
     18 C          68.7739   91.8353   14.1249 C.ar    1  UNL1        0.0111
     19 C          68.6651   93.1255   14.8822 C.ar    1  UNL1        0.0577
     20 CL         69.8461   93.6500   15.6438 Cl      1  UNL1       -0.0822
     21 C          67.3752   93.8912   14.8778 C.ar    1  UNL1        0.0111
     22 C          66.1942   93.3666   14.1162 C.ar    1  UNL1       -0.0018
     23 C          64.4270   90.1276   14.6560 C.3     1  UNL1        0.0991
     24 C          64.1553   91.0610   15.7983 C.3     1  UNL1        0.0200
     25 C          64.6428   92.0694   16.7961 C.3     1  UNL1        0.0018
     26 C          63.1972   91.6694   16.7790 C.3     1  UNL1        0.0018
     27 C          64.9417   88.7444   14.9239 C.3     1  UNL1        0.1703
     28 S          64.0842   87.7533   15.6537 S.O2    1  UNL1       -0.0115
     29 O          64.9685   86.6386   15.1790 O.2     1  UNL1       -0.1730
     30 O          63.1999   88.8680   16.1284 O.2     1  UNL1       -0.1730
     31 C          63.6716   85.6834   15.4411 C.3     1  UNL1        0.0236
     32 C          63.2268   86.7623   16.3835 C.3     1  UNL1        0.1108
     33 C          62.7819   87.8412   17.3258 C.3     1  UNL1        0.0236
     34 C          62.3693   85.7713   17.1133 C.3     1  UNL1        0.0236
     35 C          61.5975   89.5722   11.2545 C.3     1  UNL1        0.0611
     36 C          61.5542   88.2722   10.5076 C.ar    1  UNL1        0.0883
     37 N          60.9038   88.0418    9.1757 N.ar    1  UNL1       -0.2466
     38 C          61.1013   86.6014    8.8065 C.ar    1  UNL1        0.0712
     39 C          61.8737   85.9416    9.9101 C.ar    1  UNL1        0.0516
     40 S          62.1536   86.9742   10.9615 S.2     1  UNL1       -0.0706
     41 C          60.6122   85.9374    7.5534 C.3     1  UNL1        0.0879
     42 C          61.4775   84.9347    6.8492 C.2     1  UNL1        0.0563
     43 O          62.9336   84.8277    7.1933 O.co2   1  UNL1       -0.5488
     44 O          60.8867   84.0391    5.8009 O.co2   1  UNL1       -0.5488
@<TRIPOS>UNITY_ATOM_ATTR
43 1
charge -1
@<TRIPOS>BOND
     1    31    32    1
     2    32    33    1
     3    32    34    1
     4    32    28    1
     5    28    29    2
     6    28    30    2
     7    28    27    1
     8    23    27    1
     9    23    24    1
    10    24    25    1
    11    25    26    1
    12    23     1    1
    13     1     2   am
    14     2     3    2
    15     2     4    1
    16     4     5    1
    17     4    35    1
    18    35    36    1
    19    36    37   ar
    20    37    38   ar
    21    38    41    1
    22    41    42    1
    23    42    43   ar
    24    42    44   ar
    25    38    39   ar
    26    39    40   ar
    27     4     6    1
    28     6     7    1
    29     7     9    1
    30     9    10   ar
    31    10    11   ar
    32    11    12   ar
    33    12    13   ar
    34    13    14    1
    35    13    15   ar
    36     7     8    1
    37     8    16    1
    38    16    17   ar
    39    17    18   ar
    40    18    19   ar
    41    19    20    1
    42    19    21   ar
    43    21    22   ar
    44    26    24    1
    45     8     1    1
    46    22    16   ar
    47    40    36   ar
    48    15     9   ar
@<TRIPOS>MOLECULE
*****
 44 48 0 0 0
SMALL
GASTEIGER

@<TRIPOS>ATOM
      1 N          63.9535   90.1120   13.1444 N.am    1  UNL1       -0.2770
      2 C          62.8129   89.6623   12.2803 C.2     1  UNL1        0.2253
      3 O          61.8961   88.5740   12.7547 O.2     1  UNL1       -0.2749
      4 C          62.5890   90.3010   10.9417 C.3     1  UNL1        0.0755
      5 C          61.9724   90.5975    9.6068 C.3     1  UNL1        0.0095
      6 C          63.5057   91.3894   10.4672 C.3     1  UNL1        0.0154
      7 C          64.6463   91.8390   11.3313 C.3     1  UNL1        0.0452
      8 C          64.8702   91.2003   12.6699 C.3     1  UNL1        0.1018
      9 C          65.5631   92.9274   10.8569 C.ar    1  UNL1       -0.0197
     10 C          66.7209   92.5960    9.9628 C.ar    1  UNL1       -0.0042
     11 C          67.6377   93.6843    9.4883 C.ar    1  UNL1        0.0005
     12 C          67.3965   95.1041    9.9080 C.ar    1  UNL1        0.0114
     13 C          66.2386   95.4355   10.8020 C.ar    1  UNL1        0.0574
     14 CL         65.9974   96.8553   11.2217 Cl      1  UNL1       -0.0823
     15 C          65.3219   94.3471   11.2765 C.ar    1  UNL1        0.0072
     16 C          66.0109   91.6500   13.5341 C.ar    1  UNL1       -0.0039
     17 C          65.7462   92.4907   14.7478 C.ar    1  UNL1       -0.0018
     18 C          66.8867   92.9404   15.6120 C.ar    1  UNL1        0.0111
     19 C          68.2921   92.5492   15.2626 C.ar    1  UNL1        0.0577
     20 CL         69.4327   92.9989   16.1268 Cl      1  UNL1       -0.0822
     21 C          68.5568   91.7085   14.0489 C.ar    1  UNL1        0.0111
     22 C          67.4161   91.2588   13.1847 C.ar    1  UNL1       -0.0018
     23 C          64.1774   89.4733   14.4831 C.3     1  UNL1        0.0991
     24 C          63.6750   90.1436   15.7273 C.3     1  UNL1        0.0200
     25 C          62.8224   90.1210   16.9613 C.3     1  UNL1        0.0018
     26 C          63.6573   91.3273   16.6485 C.3     1  UNL1        0.0018
     27 C          64.9037   88.1643   14.5774 C.3     1  UNL1        0.1703
     28 S          64.1423   86.9025   14.8572 S.O2    1  UNL1       -0.0115
     29 O          64.0619   86.6247   13.3853 O.2     1  UNL1       -0.1730
     30 O          64.2227   87.1803   16.3290 O.2     1  UNL1       -0.1730
     31 C          63.2239   86.0534   16.5705 C.3     1  UNL1        0.0236
     32 C          63.3809   85.6408   15.1369 C.3     1  UNL1        0.1108
     33 C          63.5379   85.2282   13.7034 C.3     1  UNL1        0.0236
     34 C          62.6195   84.3791   15.4167 C.3     1  UNL1        0.0236
     35 C          61.4581   89.3157   10.9525 C.3     1  UNL1        0.0611
     36 C          60.8631   88.8426    9.6594 C.ar    1  UNL1        0.0883
     37 N          60.0130   89.6571    8.7298 N.ar    1  UNL1       -0.2466
     38 C          59.6382   88.7898    7.5648 C.ar    1  UNL1        0.0712
     39 C          60.2566   87.4393    7.7743 C.ar    1  UNL1        0.0516
     40 S          61.0136   87.4720    9.0688 S.2     1  UNL1       -0.0706
     41 C          58.7933   89.2008    6.3954 C.3     1  UNL1        0.0879
     42 C          59.0885   90.4801    5.6698 C.2     1  UNL1        0.0563
     43 O          57.9771   91.4365    5.3534 O.co2   1  UNL1       -0.5488
     44 O          60.4950   90.8028    5.2605 O.co2   1  UNL1       -0.5488
@<TRIPOS>UNITY_ATOM_ATTR
43 1
charge -1
@<TRIPOS>BOND
     1    31    32    1
     2    32    33    1
     3    32    34    1
     4    32    28    1
     5    28    29    2
     6    28    30    2
     7    28    27    1
     8    23    27    1
     9    23    24    1
    10    24    25    1
    11    25    26    1
    12    23     1    1
    13     1     2   am
    14     2     3    2
    15     2     4    1
    16     4     5    1
    17     4    35    1
    18    35    36    1
    19    36    37   ar
    20    37    38   ar
    21    38    41    1
    22    41    42    1
    23    42    43   ar
    24    42    44   ar
    25    38    39   ar
    26    39    40   ar
    27     4     6    1
    28     6     7    1
    29     7     9    1
    30     9    10   ar
    31    10    11   ar
    32    11    12   ar
    33    12    13   ar
    34    13    14    1
    35    13    15   ar
    36     7     8    1
    37     8    16    1
    38    16    17   ar
    39    17    18   ar
    40    18    19   ar
    41    19    20    1
    42    19    21   ar
    43    21    22   ar
    44    26    24    1
    45     8     1    1
    46    22    16   ar
    47    40    36   ar
    48    15     9   ar
@<TRIPOS>MOLECULE
*****
 44 48 0 0 0
SMALL
GASTEIGER

@<TRIPOS>ATOM
      1 N          63.5722   86.3478   13.3037 N.am    1  UNL1       -0.2770
      2 C          63.5251   87.8058   13.6528 C.2     1  UNL1        0.2253
      3 O          63.9965   88.2703   14.9989 O.2     1  UNL1       -0.2749
      4 C          63.0066   88.7993   12.6558 C.3     1  UNL1        0.0755
      5 C          62.6031   90.1125   12.0536 C.3     1  UNL1        0.0095
      6 C          62.5352   88.3348   11.3097 C.3     1  UNL1        0.0154
      7 C          62.5823   86.8768   10.9606 C.3     1  UNL1        0.0452
      8 C          63.1008   85.8833   11.9576 C.3     1  UNL1        0.1018
      9 C          62.1109   86.4122    9.6144 C.ar    1  UNL1       -0.0197
     10 C          63.0353   85.6382    8.7221 C.ar    1  UNL1       -0.0042
     11 C          62.5639   85.1737    7.3760 C.ar    1  UNL1        0.0005
     12 C          61.1681   85.4832    6.9222 C.ar    1  UNL1        0.0114
     13 C          60.2437   86.2572    7.8146 C.ar    1  UNL1        0.0574
     14 CL         58.8479   86.5668    7.3608 Cl      1  UNL1       -0.0823
     15 C          60.7151   86.7218    9.1607 C.ar    1  UNL1        0.0072
     16 C          63.1480   84.4252   11.6085 C.ar    1  UNL1       -0.0039
     17 C          61.8742   83.6439   11.4771 C.ar    1  UNL1       -0.0018
     18 C          61.9213   82.1858   11.1280 C.ar    1  UNL1        0.0111
     19 C          63.2422   81.5090   10.9103 C.ar    1  UNL1        0.0577
     20 CL         63.2893   80.0510   10.5613 Cl      1  UNL1       -0.0822
     21 C          64.5159   82.2903   11.0417 C.ar    1  UNL1        0.0111
     22 C          64.4688   83.7484   11.3908 C.ar    1  UNL1       -0.0018
     23 C          64.0908   85.3542   14.3007 C.3     1  UNL1        0.0991
     24 C          65.5686   85.1987   14.5055 C.3     1  UNL1        0.0200
     25 C          66.8427   85.6412   15.1616 C.3     1  UNL1        0.0018
     26 C          66.8539   84.4867   14.2039 C.3     1  UNL1        0.0018
     27 C          63.1315   84.5162   15.0929 C.3     1  UNL1        0.1703
     28 S          62.9453   83.0668   14.7543 S.O2    1  UNL1       -0.0115
     29 O          61.5092   83.3314   14.4113 O.2     1  UNL1       -0.1730
     30 O          64.3813   82.8022   15.0973 O.2     1  UNL1       -0.1730
     31 C          61.2707   81.7975   14.4633 C.3     1  UNL1        0.0236
     32 C          62.7591   81.6174   14.4157 C.3     1  UNL1        0.1108
     33 C          64.2474   81.4373   14.3681 C.3     1  UNL1        0.0236
     34 C          62.5729   80.1681   14.0771 C.3     1  UNL1        0.0236
     35 C          63.3378   89.7199   13.7927 C.3     1  UNL1        0.0611
     36 C          64.3368   90.8220   13.5989 C.ar    1  UNL1        0.0883
     37 N          64.4616   91.6956   12.3859 N.ar    1  UNL1       -0.2466
     38 C          65.5883   92.6573   12.6214 C.ar    1  UNL1        0.0712
     39 C          66.1599   92.3782   13.9799 C.ar    1  UNL1        0.0516
     40 S          65.3864   91.2438   14.5840 S.2     1  UNL1       -0.0706
     41 C          66.0606   93.7130   11.6661 C.3     1  UNL1        0.0879
     42 C          66.9996   93.3518   10.5534 C.2     1  UNL1        0.0563
     43 O          66.8782   94.0284    9.2203 O.co2   1  UNL1       -0.5488
     44 O          68.0598   92.3139   10.7740 O.co2   1  UNL1       -0.5488
@<TRIPOS>UNITY_ATOM_ATTR
43 1
charge -1
@<TRIPOS>BOND
     1    31    32    1
     2    32    33    1
     3    32    34    1
     4    32    28    1
     5    28    29    2
     6    28    30    2
     7    28    27    1
     8    23    27    1
     9    23    24    1
    10    24    25    1
    11    25    26    1
    12    23     1    1
    13     1     2   am
    14     2     3    2
    15     2     4    1
    16     4     5    1
    17     4    35    1
    18    35    36    1
    19    36    37   ar
    20    37    38   ar
    21    38    41    1
    22    41    42    1
    23    42    43   ar
    24    42    44   ar
    25    38    39   ar
    26    39    40   ar
    27     4     6    1
    28     6     7    1
    29     7     9    1
    30     9    10   ar
    31    10    11   ar
    32    11    12   ar
    33    12    13   ar
    34    13    14    1
    35    13    15   ar
    36     7     8    1
    37     8    16    1
    38    16    17   ar
    39    17    18   ar
    40    18    19   ar
    41    19    20    1
    42    19    21   ar
    43    21    22   ar
    44    26    24    1
    45     8     1    1
    46    22    16   ar
    47    40    36   ar
    48    15     9   ar
