@<TRIPOS>MOLECULE
*****
 24 26 0 0 0
SMALL
GASTEIGER

@<TRIPOS>ATOM
      1 C          63.9203   87.2508   15.3578 C.ar    1  UNL1        0.1569
      2 C          63.1532   87.3053   16.6456 C.ar    1  UNL1        0.1335
      3 N          62.3788   86.1070   17.1085 N.ar    1  UNL1       -0.2345
      4 C          62.3715   84.8542   16.2836 C.ar    1  UNL1        0.1569
      5 C          63.1385   84.7997   14.9958 C.ar    1  UNL1        0.2506
      6 N          63.9129   85.9980   14.5329 N.ar    1  UNL1       -0.1933
      7 O          62.4755   89.7647   14.5875 O.2     1  UNL1       -0.2681
      8 C          63.9723   89.7060   14.5097 C.2     1  UNL1        0.2684
      9 N          64.6947   88.4491   14.8948 N.am    1  UNL1       -0.2632
     10 H          65.6771   88.4106   14.8436 H       1  UNL1        0.1567
     11 C          64.7468   90.9043   14.0467 C.ar    1  UNL1        0.1356
     12 C          65.7361   91.5586   14.9649 C.ar    1  UNL1        0.0352
     13 C          66.5105   92.7569   14.5019 C.ar    1  UNL1        0.0609
     14 CL         67.4998   93.4112   15.4201 Cl      1  UNL1       -0.0821
     15 C          66.2955   93.3009   13.1206 C.ar    1  UNL1        0.0321
     16 C          65.3062   92.6466   12.2024 C.ar    1  UNL1        0.0999
     17 N          64.5319   91.4484   12.6654 N.ar    1  UNL1       -0.2392
     18 O          63.1312   83.5469   14.1709 O.3     1  UNL1       -0.4316
     19 C          63.3694   83.6214   12.6918 C.ar    1  UNL1        0.1854
     20 C          62.5790   84.5809   11.8523 C.ar    1  UNL1        0.1397
     21 N          62.8171   84.6554   10.3732 N.ar    1  UNL1       -0.2192
     22 C          63.8456   83.7705    9.7336 C.ar    1  UNL1        0.1991
     23 N          64.6360   82.8110   10.5731 N.ar    1  UNL1       -0.2192
     24 C          64.3978   82.7365   12.0522 C.ar    1  UNL1        0.1397
@<TRIPOS>BOND
     1     7     8    2
     2     8     9   am
     3     9     1    1
     4     1     2   ar
     5     2     3   ar
     6     3     4   ar
     7     4     5   ar
     8     5    18    1
     9    18    19    1
    10    19    20   ar
    11    20    21   ar
    12    21    22   ar
    13    22    23   ar
    14    23    24   ar
    15     5     6   ar
    16     8    11    1
    17    11    12   ar
    18    12    13   ar
    19    13    14    1
    20    13    15   ar
    21    15    16   ar
    22    16    17   ar
    23     6     1   ar
    24    17    11   ar
    25    24    19   ar
    26     9    10    1
@<TRIPOS>MOLECULE
*****
 24 26 0 0 0
SMALL
GASTEIGER

@<TRIPOS>ATOM
      1 C          63.5506   89.6147   13.3846 C.ar    1  UNL1        0.1569
      2 C          63.1337   89.4108   14.8109 C.ar    1  UNL1        0.1335
      3 N          63.6037   90.3603   15.8727 N.ar    1  UNL1       -0.2345
      4 C          64.4907   91.5137   15.5082 C.ar    1  UNL1        0.1569
      5 C          64.9077   91.7176   14.0819 C.ar    1  UNL1        0.2506
      6 N          64.4376   90.7681   13.0201 N.ar    1  UNL1       -0.1933
      7 O          61.3357   90.4182   11.5276 O.2     1  UNL1       -0.2681
      8 C          61.9732   89.0670   11.3942 C.2     1  UNL1        0.2684
      9 N          63.0806   88.6652   12.3227 N.am    1  UNL1       -0.2632
     10 H          63.4990   87.7783   12.2352 H       1  UNL1        0.1567
     11 C          61.5031   88.1174   10.3323 C.ar    1  UNL1        0.1356
     12 C          62.4526   87.1117    9.7519 C.ar    1  UNL1        0.0352
     13 C          61.9825   86.1622    8.6901 C.ar    1  UNL1        0.0609
     14 CL         62.9320   85.1564    8.1096 Cl      1  UNL1       -0.0821
     15 C          60.5630   86.2186    8.2086 C.ar    1  UNL1        0.0321
     16 C          59.6135   87.2243    8.7890 C.ar    1  UNL1        0.0999
     17 N          60.0836   88.1738    9.8509 N.ar    1  UNL1       -0.2392
     18 O          65.7947   92.8710   13.7173 O.3     1  UNL1       -0.4316
     19 C          66.4229   92.9333   12.3566 C.ar    1  UNL1        0.1854
     20 C          65.8121   93.7894   11.2870 C.ar    1  UNL1        0.1397
     21 N          66.4403   93.8517    9.9264 N.ar    1  UNL1       -0.2192
     22 C          67.6792   93.0578    9.6352 C.ar    1  UNL1        0.1991
     23 N          68.2900   92.2016   10.7047 N.ar    1  UNL1       -0.2192
     24 C          67.6618   92.1394   12.0655 C.ar    1  UNL1        0.1397
@<TRIPOS>BOND
     1     7     8    2
     2     8     9   am
     3     9     1    1
     4     1     2   ar
     5     2     3   ar
     6     3     4   ar
     7     4     5   ar
     8     5    18    1
     9    18    19    1
    10    19    20   ar
    11    20    21   ar
    12    21    22   ar
    13    22    23   ar
    14    23    24   ar
    15     5     6   ar
    16     8    11    1
    17    11    12   ar
    18    12    13   ar
    19    13    14    1
    20    13    15   ar
    21    15    16   ar
    22    16    17   ar
    23     6     1   ar
    24    17    11   ar
    25    24    19   ar
    26     9    10    1
@<TRIPOS>MOLECULE
*****
 24 26 0 0 0
SMALL
GASTEIGER

@<TRIPOS>ATOM
      1 C          61.3867   87.7566   10.7645 C.ar    1  UNL1        0.1569
      2 C          60.0370   88.2465   11.1985 C.ar    1  UNL1        0.1335
      3 N          59.7539   89.7186   11.2487 N.ar    1  UNL1       -0.2345
      4 C          60.8206   90.7010   10.8651 C.ar    1  UNL1        0.1569
      5 C          62.1703   90.2111   10.4312 C.ar    1  UNL1        0.2506
      6 N          62.4533   88.7390   10.3809 N.ar    1  UNL1       -0.1933
      7 O          63.1564   86.4978   12.8342 O.2     1  UNL1       -0.2681
      8 C          62.5546   85.6550   11.7490 C.2     1  UNL1        0.2684
      9 N          61.6697   86.2844   10.7142 N.am    1  UNL1       -0.2632
     10 H          61.2747   85.7312   10.0020 H       1  UNL1        0.1567
     11 C          62.8376   84.1828   11.6987 C.ar    1  UNL1        0.1356
     12 C          62.4146   83.2985   12.8340 C.ar    1  UNL1        0.0352
     13 C          62.6976   81.8263   12.7837 C.ar    1  UNL1        0.0609
     14 CL         62.2746   80.9419   13.9190 Cl      1  UNL1       -0.0821
     15 C          63.4038   81.2384   11.5980 C.ar    1  UNL1        0.0321
     16 C          63.8268   82.1227   10.4627 C.ar    1  UNL1        0.0999
     17 N          63.5438   83.5949   10.5130 N.ar    1  UNL1       -0.2392
     18 O          63.2370   91.1935   10.0476 O.3     1  UNL1       -0.4316
     19 C          64.1602   91.7447   11.0934 C.ar    1  UNL1        0.1854
     20 C          65.2413   92.7098   10.7062 C.ar    1  UNL1        0.1397
     21 N          66.1644   93.2611   11.7521 N.ar    1  UNL1       -0.2192
     22 C          66.0066   92.8472   13.1852 C.ar    1  UNL1        0.1991
     23 N          64.9256   91.8822   13.5724 N.ar    1  UNL1       -0.2192
     24 C          64.0023   91.3309   12.5265 C.ar    1  UNL1        0.1397
@<TRIPOS>BOND
     1     7     8    2
     2     8     9   am
     3     9     1    1
     4     1     2   ar
     5     2     3   ar
     6     3     4   ar
     7     4     5   ar
     8     5    18    1
     9    18    19    1
    10    19    20   ar
    11    20    21   ar
    12    21    22   ar
    13    22    23   ar
    14    23    24   ar
    15     5     6   ar
    16     8    11    1
    17    11    12   ar
    18    12    13   ar
    19    13    14    1
    20    13    15   ar
    21    15    16   ar
    22    16    17   ar
    23     6     1   ar
    24    17    11   ar
    25    24    19   ar
    26     9    10    1
@<TRIPOS>MOLECULE
*****
 24 26 0 0 0
SMALL
GASTEIGER

@<TRIPOS>ATOM
      1 C          62.4242   89.3567   11.5711 C.ar    1  UNL1        0.1569
      2 C          61.3967   90.1164   10.7856 C.ar    1  UNL1        0.1335
      3 N          60.3365   89.3766   10.0250 N.ar    1  UNL1       -0.2345
      4 C          60.3037   87.8772   10.0500 C.ar    1  UNL1        0.1569
      5 C          61.3311   87.1175   10.8355 C.ar    1  UNL1        0.2506
      6 N          62.3914   87.8572   11.5961 N.ar    1  UNL1       -0.1933
      7 O          62.1255   89.7899   14.5247 O.2     1  UNL1       -0.2681
      8 C          63.3352   90.3130   13.8085 C.2     1  UNL1        0.2684
      9 N          63.4846   90.0964   12.3318 N.am    1  UNL1       -0.2632
     10 H          64.2786   90.4398   11.8618 H       1  UNL1        0.1567
     11 C          64.3956   91.0527   14.5691 C.ar    1  UNL1        0.1356
     12 C          65.7770   91.1799   13.9987 C.ar    1  UNL1        0.0352
     13 C          66.8373   91.9196   14.7594 C.ar    1  UNL1        0.0609
     14 CL         68.2188   92.0467   14.1890 Cl      1  UNL1       -0.0821
     15 C          66.5161   92.5322   16.0904 C.ar    1  UNL1        0.0321
     16 C          65.1347   92.4050   16.6608 C.ar    1  UNL1        0.0999
     17 N          64.0744   91.6653   15.9001 N.ar    1  UNL1       -0.2392
     18 O          61.2983   85.6181   10.8605 O.3     1  UNL1       -0.4316
     19 C          62.4145   84.8542   11.5089 C.ar    1  UNL1        0.1854
     20 C          62.5788   84.8867   12.9996 C.ar    1  UNL1        0.1397
     21 N          63.6950   84.1228   13.6480 N.ar    1  UNL1       -0.2192
     22 C          64.6470   83.3263   12.8058 C.ar    1  UNL1        0.1991
     23 N          64.4828   83.2937   11.3152 N.ar    1  UNL1       -0.2192
     24 C          63.3665   84.0576   10.6667 C.ar    1  UNL1        0.1397
@<TRIPOS>BOND
     1     7     8    2
     2     8     9   am
     3     9     1    1
     4     1     2   ar
     5     2     3   ar
     6     3     4   ar
     7     4     5   ar
     8     5    18    1
     9    18    19    1
    10    19    20   ar
    11    20    21   ar
    12    21    22   ar
    13    22    23   ar
    14    23    24   ar
    15     5     6   ar
    16     8    11    1
    17    11    12   ar
    18    12    13   ar
    19    13    14    1
    20    13    15   ar
    21    15    16   ar
    22    16    17   ar
    23     6     1   ar
    24    17    11   ar
    25    24    19   ar
    26     9    10    1
@<TRIPOS>MOLECULE
*****
 24 26 0 0 0
SMALL
GASTEIGER

@<TRIPOS>ATOM
      1 C          63.7818   89.9476   13.8376 C.ar    1  UNL1        0.1569
      2 C          63.1783   90.1581   15.1946 C.ar    1  UNL1        0.1335
      3 N          63.7715   91.1691   16.1305 N.ar    1  UNL1       -0.2345
      4 C          64.9681   91.9696   15.7094 C.ar    1  UNL1        0.1569
      5 C          65.5716   91.7591   14.3524 C.ar    1  UNL1        0.2506
      6 N          64.9784   90.7481   13.4165 N.ar    1  UNL1       -0.1933
      7 O          62.1937   90.8551   11.4596 O.2     1  UNL1       -0.2681
      8 C          62.3946   89.3903   11.7126 C.2     1  UNL1        0.2684
      9 N          63.1886   88.9366   12.9016 N.am    1  UNL1       -0.2632
     10 H          63.3204   87.9752   13.0676 H       1  UNL1        0.1567
     11 C          61.8014   88.3793   10.7767 C.ar    1  UNL1        0.1356
     12 C          60.9223   88.8280    9.6472 C.ar    1  UNL1        0.0352
     13 C          60.3291   87.8170    8.7113 C.ar    1  UNL1        0.0609
     14 CL         59.4499   88.2656    7.5817 Cl      1  UNL1       -0.0821
     15 C          60.6152   86.3573    8.9048 C.ar    1  UNL1        0.0321
     16 C          61.4943   85.9086   10.0343 C.ar    1  UNL1        0.0999
     17 N          62.0875   86.9196   10.9702 N.ar    1  UNL1       -0.2392
     18 O          66.7683   92.5595   13.9313 O.3     1  UNL1       -0.4316
     19 C          66.9085   93.0057   12.5061 C.ar    1  UNL1        0.1854
     20 C          66.2225   94.2558   12.0406 C.ar    1  UNL1        0.1397
     21 N          66.3627   94.7020   10.6154 N.ar    1  UNL1       -0.2192
     22 C          67.1888   93.8980    9.6556 C.ar    1  UNL1        0.1991
     23 N          67.8747   92.6479   10.1211 N.ar    1  UNL1       -0.2192
     24 C          67.7346   92.2017   11.5464 C.ar    1  UNL1        0.1397
@<TRIPOS>BOND
     1     7     8    2
     2     8     9   am
     3     9     1    1
     4     1     2   ar
     5     2     3   ar
     6     3     4   ar
     7     4     5   ar
     8     5    18    1
     9    18    19    1
    10    19    20   ar
    11    20    21   ar
    12    21    22   ar
    13    22    23   ar
    14    23    24   ar
    15     5     6   ar
    16     8    11    1
    17    11    12   ar
    18    12    13   ar
    19    13    14    1
    20    13    15   ar
    21    15    16   ar
    22    16    17   ar
    23     6     1   ar
    24    17    11   ar
    25    24    19   ar
    26     9    10    1
@<TRIPOS>MOLECULE
*****
 24 26 0 0 0
SMALL
GASTEIGER

@<TRIPOS>ATOM
      1 C          63.8883   91.0091   12.3476 C.ar    1  UNL1        0.1569
      2 C          63.6597   90.8241   13.8185 C.ar    1  UNL1        0.1335
      3 N          64.5318   91.5377   14.8085 N.ar    1  UNL1       -0.2345
      4 C          65.6324   92.4363   14.3277 C.ar    1  UNL1        0.1569
      5 C          65.8609   92.6213   12.8568 C.ar    1  UNL1        0.2506
      6 N          64.9889   91.9077   11.8668 N.ar    1  UNL1       -0.1933
      7 O          63.4100   88.0602   12.6216 O.2     1  UNL1       -0.2681
      8 C          62.7771   88.8211   11.4945 C.2     1  UNL1        0.2684
      9 N          63.0161   90.2955   11.3575 N.am    1  UNL1       -0.2632
     10 H          62.6007   90.7949   10.6177 H       1  UNL1        0.1567
     11 C          61.9049   88.1075   10.5044 C.ar    1  UNL1        0.1356
     12 C          62.4869   87.0421    9.6233 C.ar    1  UNL1        0.0352
     13 C          61.6148   86.3286    8.6333 C.ar    1  UNL1        0.0609
     14 CL         62.1968   85.2631    7.7522 Cl      1  UNL1       -0.0821
     15 C          60.1607   86.6804    8.5243 C.ar    1  UNL1        0.0321
     16 C          59.5788   87.7457    9.4053 C.ar    1  UNL1        0.0999
     17 N          60.4509   88.4593   10.3953 N.ar    1  UNL1       -0.2392
     18 O          66.9616   93.5199   12.3760 O.3     1  UNL1       -0.4316
     19 C          66.7551   94.3744   11.1606 C.ar    1  UNL1        0.1854
     20 C          66.1024   95.7188   11.2911 C.ar    1  UNL1        0.1397
     21 N          65.8959   96.5733   10.0758 N.ar    1  UNL1       -0.2192
     22 C          66.3421   96.0836    8.7300 C.ar    1  UNL1        0.1991
     23 N          66.9947   94.7394    8.5995 N.ar    1  UNL1       -0.2192
     24 C          67.2012   93.8848    9.8148 C.ar    1  UNL1        0.1397
@<TRIPOS>BOND
     1     7     8    2
     2     8     9   am
     3     9     1    1
     4     1     2   ar
     5     2     3   ar
     6     3     4   ar
     7     4     5   ar
     8     5    18    1
     9    18    19    1
    10    19    20   ar
    11    20    21   ar
    12    21    22   ar
    13    22    23   ar
    14    23    24   ar
    15     5     6   ar
    16     8    11    1
    17    11    12   ar
    18    12    13   ar
    19    13    14    1
    20    13    15   ar
    21    15    16   ar
    22    16    17   ar
    23     6     1   ar
    24    17    11   ar
    25    24    19   ar
    26     9    10    1
@<TRIPOS>MOLECULE
*****
 24 26 0 0 0
SMALL
GASTEIGER

@<TRIPOS>ATOM
      1 C          62.3888   89.2841   11.6106 C.ar    1  UNL1        0.1569
      2 C          60.9207   89.5418   11.4422 C.ar    1  UNL1        0.1335
      3 N          59.9951   88.4114   11.1023 N.ar    1  UNL1       -0.2345
      4 C          60.5376   87.0235   10.9308 C.ar    1  UNL1        0.1569
      5 C          62.0056   86.7659   11.0992 C.ar    1  UNL1        0.2506
      6 N          62.9312   87.8962   11.4391 N.ar    1  UNL1       -0.1933
      7 O          64.0349   89.1733   14.1163 O.2     1  UNL1       -0.2681
      8 C          64.1375   90.3591   13.2033 C.2     1  UNL1        0.2684
      9 N          63.3145   90.4145   11.9505 N.am    1  UNL1       -0.2632
     10 H          63.3819   91.1927   11.3513 H       1  UNL1        0.1567
     11 C          65.0632   91.4894   13.5432 C.ar    1  UNL1        0.1356
     12 C          65.8320   91.4679   14.8310 C.ar    1  UNL1        0.0352
     13 C          66.7576   92.5982   15.1708 C.ar    1  UNL1        0.0609
     14 CL         67.5265   92.5767   16.4587 Cl      1  UNL1       -0.0821
     15 C          66.9145   93.7500   14.2229 C.ar    1  UNL1        0.0321
     16 C          66.1457   93.7716   12.9351 C.ar    1  UNL1        0.0999
     17 N          65.2201   92.6413   12.5953 N.ar    1  UNL1       -0.2392
     18 O          62.5481   85.3780   10.9277 O.3     1  UNL1       -0.4316
     19 C          62.8981   84.5554   12.1322 C.ar    1  UNL1        0.1854
     20 C          62.6862   83.0705   12.1137 C.ar    1  UNL1        0.1397
     21 N          63.0363   82.2479   13.3182 N.ar    1  UNL1       -0.2192
     22 C          63.5982   82.9101   14.5412 C.ar    1  UNL1        0.1991
     23 N          63.8102   84.3949   14.5597 N.ar    1  UNL1       -0.2192
     24 C          63.4601   85.2176   13.3551 C.ar    1  UNL1        0.1397
@<TRIPOS>BOND
     1     7     8    2
     2     8     9   am
     3     9     1    1
     4     1     2   ar
     5     2     3   ar
     6     3     4   ar
     7     4     5   ar
     8     5    18    1
     9    18    19    1
    10    19    20   ar
    11    20    21   ar
    12    21    22   ar
    13    22    23   ar
    14    23    24   ar
    15     5     6   ar
    16     8    11    1
    17    11    12   ar
    18    12    13   ar
    19    13    14    1
    20    13    15   ar
    21    15    16   ar
    22    16    17   ar
    23     6     1   ar
    24    17    11   ar
    25    24    19   ar
    26     9    10    1
@<TRIPOS>MOLECULE
*****
 24 26 0 0 0
SMALL
GASTEIGER

@<TRIPOS>ATOM
      1 C          62.6103   89.9070   12.1314 C.ar    1  UNL1        0.1569
      2 C          62.2814   89.4605   13.5251 C.ar    1  UNL1        0.1335
      3 N          62.9703   90.0935   14.6976 N.ar    1  UNL1       -0.2345
      4 C          63.9880   91.1730   14.4764 C.ar    1  UNL1        0.1569
      5 C          64.3169   91.6195   13.0827 C.ar    1  UNL1        0.2506
      6 N          63.6281   90.9865   11.9102 N.ar    1  UNL1       -0.1933
      7 O          62.6705   86.9276   11.7854 O.2     1  UNL1       -0.2681
      8 C          61.9516   87.7843   10.7858 C.2     1  UNL1        0.2684
      9 N          61.9215   89.2740   10.9588 N.am    1  UNL1       -0.2632
     10 H          61.4496   89.8363   10.3027 H       1  UNL1        0.1567
     11 C          61.2628   87.1513    9.6132 C.ar    1  UNL1        0.1356
     12 C          62.0181   86.2184    8.7137 C.ar    1  UNL1        0.0352
     13 C          61.3292   85.5855    7.5412 C.ar    1  UNL1        0.0609
     14 CL         62.0845   84.6526    6.6416 Cl      1  UNL1       -0.0821
     15 C          59.8851   85.8854    7.2682 C.ar    1  UNL1        0.0321
     16 C          59.1298   86.8183    8.1678 C.ar    1  UNL1        0.0999
     17 N          59.8186   87.4512    9.3403 N.ar    1  UNL1       -0.2392
     18 O          65.3346   92.6990   12.8615 O.3     1  UNL1       -0.4316
     19 C          66.5850   92.7319   13.6893 C.ar    1  UNL1        0.1854
     20 C          66.5755   93.3917   15.0365 C.ar    1  UNL1        0.1397
     21 N          67.8258   93.4246   15.8643 N.ar    1  UNL1       -0.2192
     22 C          69.0858   92.7978   15.3451 C.ar    1  UNL1        0.1991
     23 N          69.0954   92.1381   13.9981 N.ar    1  UNL1       -0.2192
     24 C          67.8450   92.1051   13.1701 C.ar    1  UNL1        0.1397
@<TRIPOS>BOND
     1     7     8    2
     2     8     9   am
     3     9     1    1
     4     1     2   ar
     5     2     3   ar
     6     3     4   ar
     7     4     5   ar
     8     5    18    1
     9    18    19    1
    10    19    20   ar
    11    20    21   ar
    12    21    22   ar
    13    22    23   ar
    14    23    24   ar
    15     5     6   ar
    16     8    11    1
    17    11    12   ar
    18    12    13   ar
    19    13    14    1
    20    13    15   ar
    21    15    16   ar
    22    16    17   ar
    23     6     1   ar
    24    17    11   ar
    25    24    19   ar
    26     9    10    1
@<TRIPOS>MOLECULE
*****
 24 26 0 0 0
SMALL
GASTEIGER

@<TRIPOS>ATOM
      1 C          62.0601   89.5256   10.3370 C.ar    1  UNL1        0.1569
      2 C          60.5800   89.7386   10.4546 C.ar    1  UNL1        0.1335
      3 N          59.6327   88.6284   10.1081 N.ar    1  UNL1       -0.2345
      4 C          60.1655   87.3053    9.6440 C.ar    1  UNL1        0.1569
      5 C          61.6456   87.0923    9.5264 C.ar    1  UNL1        0.2506
      6 N          62.5929   88.2025    9.8729 N.ar    1  UNL1       -0.1933
      7 O          63.5069   89.4976   12.9650 O.2     1  UNL1       -0.2681
      8 C          63.7309   90.6218   11.9975 C.2     1  UNL1        0.2684
      9 N          63.0075   90.6358   10.6836 N.am    1  UNL1       -0.2632
     10 H          63.1545   91.3736   10.0486 H       1  UNL1        0.1567
     11 C          64.6783   91.7320   12.3440 C.ar    1  UNL1        0.1356
     12 C          65.2428   92.6019   11.2603 C.ar    1  UNL1        0.0352
     13 C          66.1901   93.7120   11.6068 C.ar    1  UNL1        0.0609
     14 CL         66.7547   94.5820   10.5230 Cl      1  UNL1       -0.0821
     15 C          66.5729   93.9522   13.0371 C.ar    1  UNL1        0.0321
     16 C          66.0084   93.0823   14.1209 C.ar    1  UNL1        0.0999
     17 N          65.0611   91.9722   13.7743 N.ar    1  UNL1       -0.2392
     18 O          62.1784   85.7691    9.0623 O.3     1  UNL1       -0.4316
     19 C          62.8642   84.8544   10.0333 C.ar    1  UNL1        0.1854
     20 C          62.5648   84.9566   11.4996 C.ar    1  UNL1        0.1397
     21 N          63.2506   84.0419   12.4707 N.ar    1  UNL1       -0.2192
     22 C          64.2358   83.0250   11.9755 C.ar    1  UNL1        0.1991
     23 N          64.5352   82.9227   10.5093 N.ar    1  UNL1       -0.2192
     24 C          63.8494   83.8375    9.5381 C.ar    1  UNL1        0.1397
@<TRIPOS>BOND
     1     7     8    2
     2     8     9   am
     3     9     1    1
     4     1     2   ar
     5     2     3   ar
     6     3     4   ar
     7     4     5   ar
     8     5    18    1
     9    18    19    1
    10    19    20   ar
    11    20    21   ar
    12    21    22   ar
    13    22    23   ar
    14    23    24   ar
    15     5     6   ar
    16     8    11    1
    17    11    12   ar
    18    12    13   ar
    19    13    14    1
    20    13    15   ar
    21    15    16   ar
    22    16    17   ar
    23     6     1   ar
    24    17    11   ar
    25    24    19   ar
    26     9    10    1
