@<TRIPOS>MOLECULE
*****
 38 41 0 0 0
SMALL
GASTEIGER

@<TRIPOS>ATOM
      1 C          63.3995   84.6474   13.4731 C.3     1  UNL1        0.3254
      2 F          64.7068   85.3792   13.3977 F       1  UNL1       -0.1949
      3 F          62.0013   84.1417   13.2757 F       1  UNL1       -0.1949
      4 C          62.8627   85.4914   12.3552 C.ar    1  UNL1        0.1218
      5 C          62.2268   84.8406   11.1628 C.ar    1  UNL1        0.0208
      6 C          61.6899   85.6846   10.0449 C.ar    1  UNL1        0.0112
      7 C          61.7889   87.1795   10.1196 C.ar    1  UNL1        0.0611
      8 C          62.4249   87.8303   11.3122 C.ar    1  UNL1        0.1068
      9 N          62.9617   86.9863   12.4299 N.ar    1  UNL1       -0.2421
     10 C          61.2521   88.0235    9.0019 C.1     1  UNL1       -0.0582
     11 C          60.7153   88.8675    7.8841 C.1     1  UNL1       -0.0597
     12 C          60.1784   89.7115    6.7663 C.ar    1  UNL1        0.0420
     13 C          58.6970   89.8574    6.5816 C.ar    1  UNL1        0.0082
     14 C          58.1602   90.7014    5.4638 C.ar    1  UNL1        0.0045
     15 C          59.1047   91.3996    4.5309 C.ar    1  UNL1        0.0715
     16 C          60.5861   91.2537    4.7156 C.ar    1  UNL1        0.0045
     17 C          61.1229   90.4097    5.8334 C.ar    1  UNL1        0.0082
     18 C          58.5678   92.2436    3.4131 C.3     1  UNL1        0.4186
     19 F          58.0310   93.0877    2.2953 F       1  UNL1       -0.1659
     20 F          57.1679   91.9592    3.8707 F       1  UNL1       -0.1659
     21 F          59.9677   92.5280    2.9555 F       1  UNL1       -0.1659
     22 O          64.4733   82.9596   15.7086 O.3     1  UNL1       -0.3755
     23 C          63.9364   83.8035   14.5908 C.3     1  UNL1        0.1932
     24 H          63.7492   82.4516   16.1068 H       1  UNL1        0.2110
     25 C          63.5182   82.5644   13.8562 C.ar    1  UNL1        0.0368
     26 C          62.4584   81.6727   14.4322 C.ar    1  UNL1        0.0028
     27 C          62.0402   80.4336   13.6976 C.ar    1  UNL1        0.0295
     28 C          62.6817   80.0862   12.3869 C.ar    1  UNL1        0.1424
     29 F          62.2634   78.8471   11.6523 F       1  UNL1       -0.2041
     30 C          63.7414   80.9779   11.8109 C.ar    1  UNL1        0.0590
     31 C          64.1597   82.2170   12.5455 C.ar    1  UNL1        0.1408
     32 F          65.2194   83.1087   11.9695 F       1  UNL1       -0.2043
     33 C          64.3547   85.0426   15.3255 C.3     1  UNL1        0.1679
     34 N          63.3365   85.8501   16.0746 N.ar    1  UNL1       -0.2078
     35 C          63.4693   87.2920   16.4663 C.ar    1  UNL1        0.2216
     36 N          62.2216   87.6906   17.1972 N.ar    1  UNL1       -0.1048
     37 N          61.3176   86.4950   17.2572 N.ar    1  UNL1       -0.0226
     38 N          62.0067   85.3576   16.5634 N.ar    1  UNL1       -0.0428
@<TRIPOS>BOND
     1    22    23    1
     2    23    33    1
     3    33    34    1
     4    34    35   ar
     5    35    36   ar
     6    36    37   ar
     7    37    38   ar
     8    23    25    1
     9    25    26   ar
    10    26    27   ar
    11    27    28   ar
    12    28    29    1
    13    28    30   ar
    14    30    31   ar
    15    31    32    1
    16    23     1    1
    17     1     2    1
    18     1     3    1
    19     1     4    1
    20     4     5   ar
    21     5     6   ar
    22     6     7   ar
    23     7    10    1
    24    10    11    3
    25    11    12    1
    26    12    13   ar
    27    13    14   ar
    28    14    15   ar
    29    15    18    1
    30    18    19    1
    31    18    20    1
    32    18    21    1
    33    15    16   ar
    34    16    17   ar
    35     7     8   ar
    36     8     9   ar
    37    38    34   ar
    38    31    25   ar
    39     9     4   ar
    40    17    12   ar
    41    22    24    1
@<TRIPOS>MOLECULE
*****
 38 41 0 0 0
SMALL
GASTEIGER

@<TRIPOS>ATOM
      1 C          63.4348   84.6879   13.3710 C.3     1  UNL1        0.3254
      2 F          64.8100   85.2291   13.1140 F       1  UNL1       -0.1949
      3 F          61.9697   84.3671   13.3504 F       1  UNL1       -0.1949
      4 C          62.8940   85.5323   12.2554 C.ar    1  UNL1        0.1218
      5 C          62.3409   84.8814   11.0224 C.ar    1  UNL1        0.0208
      6 C          61.8000   85.7259    9.9068 C.ar    1  UNL1        0.0112
      7 C          61.8124   87.2212   10.0243 C.ar    1  UNL1        0.0611
      8 C          62.3656   87.8721   11.2573 C.ar    1  UNL1        0.1068
      9 N          62.9064   87.0277   12.3729 N.ar    1  UNL1       -0.2421
     10 C          61.2716   88.0657    8.9087 C.1     1  UNL1       -0.0582
     11 C          60.7309   88.9101    7.7932 C.1     1  UNL1       -0.0597
     12 C          60.1900   89.7546    6.6776 C.ar    1  UNL1        0.0420
     13 C          61.1308   90.4312    5.7253 C.ar    1  UNL1        0.0082
     14 C          60.5899   91.2756    4.6098 C.ar    1  UNL1        0.0045
     15 C          59.1083   91.4433    4.4466 C.ar    1  UNL1        0.0715
     16 C          58.1675   90.7667    5.3990 C.ar    1  UNL1        0.0045
     17 C          58.7084   89.9223    6.5145 C.ar    1  UNL1        0.0082
     18 C          58.5674   92.2878    3.3310 C.3     1  UNL1        0.4186
     19 F          58.0266   93.1322    2.2155 F       1  UNL1       -0.1659
     20 F          59.9660   92.6506    2.9276 F       1  UNL1       -0.1659
     21 F          57.1690   91.9250    3.7344 F       1  UNL1       -0.1659
     22 O          64.5165   82.9991   15.6021 O.3     1  UNL1       -0.3755
     23 C          63.9757   83.8435   14.4865 C.3     1  UNL1        0.1932
     24 H          63.7950   82.4860   15.9982 H       1  UNL1        0.2110
     25 C          63.5647   82.6044   13.7479 C.ar    1  UNL1        0.0368
     26 C          64.3226   82.1727   12.5274 C.ar    1  UNL1        0.0028
     27 C          63.9116   80.9336   11.7887 C.ar    1  UNL1        0.0295
     28 C          62.7429   80.1261   12.2704 C.ar    1  UNL1        0.1424
     29 F          62.3319   78.8870   11.5317 F       1  UNL1       -0.2041
     30 C          61.9851   80.5578   13.4908 C.ar    1  UNL1        0.0590
     31 C          62.3960   81.7970   14.2295 C.ar    1  UNL1        0.1408
     32 F          61.6381   82.2286   15.4499 F       1  UNL1       -0.2043
     33 C          64.3867   85.0827   15.2253 C.3     1  UNL1        0.1679
     34 N          63.3691   85.8659   16.0005 N.ar    1  UNL1       -0.2078
     35 C          63.4984   87.2972   16.4302 C.ar    1  UNL1        0.2216
     36 N          62.2527   87.6713   17.1774 N.ar    1  UNL1       -0.1048
     37 N          61.3535   86.4711   17.2096 N.ar    1  UNL1       -0.0226
     38 N          62.0435   85.3553   16.4822 N.ar    1  UNL1       -0.0428
@<TRIPOS>BOND
     1    22    23    1
     2    23    33    1
     3    33    34    1
     4    34    35   ar
     5    35    36   ar
     6    36    37   ar
     7    37    38   ar
     8    23    25    1
     9    25    26   ar
    10    26    27   ar
    11    27    28   ar
    12    28    29    1
    13    28    30   ar
    14    30    31   ar
    15    31    32    1
    16    23     1    1
    17     1     2    1
    18     1     3    1
    19     1     4    1
    20     4     5   ar
    21     5     6   ar
    22     6     7   ar
    23     7    10    1
    24    10    11    3
    25    11    12    1
    26    12    13   ar
    27    13    14   ar
    28    14    15   ar
    29    15    18    1
    30    18    19    1
    31    18    20    1
    32    18    21    1
    33    15    16   ar
    34    16    17   ar
    35     7     8   ar
    36     8     9   ar
    37    38    34   ar
    38    31    25   ar
    39     9     4   ar
    40    17    12   ar
    41    22    24    1
@<TRIPOS>MOLECULE
*****
 38 41 0 0 0
SMALL
GASTEIGER

@<TRIPOS>ATOM
      1 C          62.9911   84.6027   13.2803 C.3     1  UNL1        0.3254
      2 F          61.7057   84.8637   14.0082 F       1  UNL1       -0.1949
      3 F          64.1258   84.5595   12.3003 F       1  UNL1       -0.1949
      4 C          62.5265   85.4707   12.1486 C.ar    1  UNL1        0.1218
      5 C          61.9625   84.8460   10.9070 C.ar    1  UNL1        0.0208
      6 C          61.4979   85.7140    9.7752 C.ar    1  UNL1        0.0112
      7 C          61.5973   87.2067    9.8851 C.ar    1  UNL1        0.0611
      8 C          62.1613   87.8313   11.1269 C.ar    1  UNL1        0.1068
      9 N          62.6259   86.9633   12.2585 N.ar    1  UNL1       -0.2421
     10 C          61.1327   88.0747    8.7535 C.1     1  UNL1       -0.0582
     11 C          60.6682   88.9427    7.6218 C.1     1  UNL1       -0.0597
     12 C          60.2036   89.8107    6.4900 C.ar    1  UNL1        0.0420
     13 C          58.7390   90.0701    6.2961 C.ar    1  UNL1        0.0082
     14 C          58.2746   90.9381    5.1644 C.ar    1  UNL1        0.0045
     15 C          59.2747   91.5466    4.2266 C.ar    1  UNL1        0.0715
     16 C          60.7392   91.2872    4.4205 C.ar    1  UNL1        0.0045
     17 C          61.2037   90.4192    5.5523 C.ar    1  UNL1        0.0082
     18 C          58.8101   92.4147    3.0949 C.3     1  UNL1        0.4186
     19 F          58.3455   93.2826    1.9632 F       1  UNL1       -0.1659
     20 F          60.2353   92.7430    2.7617 F       1  UNL1       -0.1659
     21 F          57.3850   92.0863    3.4281 F       1  UNL1       -0.1659
     22 O          63.9201   82.8668   15.5438 O.3     1  UNL1       -0.3755
     23 C          63.4556   83.7347   14.4120 C.3     1  UNL1        0.1932
     24 H          64.7581   83.2099   15.8915 H       1  UNL1        0.2110
     25 C          63.3524   84.9014   15.3491 C.ar    1  UNL1        0.0368
     26 C          62.3072   84.9090   16.4251 C.ar    1  UNL1        0.0028
     27 C          62.2040   86.0757   17.3622 C.ar    1  UNL1        0.0295
     28 C          63.1460   87.2348   17.2234 C.ar    1  UNL1        0.1424
     29 F          63.0429   88.4014   18.1605 F       1  UNL1       -0.2041
     30 C          64.1912   87.2271   16.1476 C.ar    1  UNL1        0.0590
     31 C          64.2944   86.0604   15.2104 C.ar    1  UNL1        0.1408
     32 F          65.3396   86.0528   14.1345 F       1  UNL1       -0.2043
     33 C          63.5588   82.5680   13.4749 C.3     1  UNL1        0.1679
     34 N          62.5771   81.4381   13.5730 N.ar    1  UNL1       -0.2078
     35 C          62.7553   80.0631   13.0007 C.ar    1  UNL1        0.2216
     36 N          61.5331   79.2601   13.3346 N.ar    1  UNL1       -0.1048
     37 N          60.5995   80.1389   14.1132 N.ar    1  UNL1       -0.0226
     38 N          61.2448   81.4850   14.2606 N.ar    1  UNL1       -0.0428
@<TRIPOS>BOND
     1    22    23    1
     2    23    33    1
     3    33    34    1
     4    34    35   ar
     5    35    36   ar
     6    36    37   ar
     7    37    38   ar
     8    23    25    1
     9    25    26   ar
    10    26    27   ar
    11    27    28   ar
    12    28    29    1
    13    28    30   ar
    14    30    31   ar
    15    31    32    1
    16    23     1    1
    17     1     2    1
    18     1     3    1
    19     1     4    1
    20     4     5   ar
    21     5     6   ar
    22     6     7   ar
    23     7    10    1
    24    10    11    3
    25    11    12    1
    26    12    13   ar
    27    13    14   ar
    28    14    15   ar
    29    15    18    1
    30    18    19    1
    31    18    20    1
    32    18    21    1
    33    15    16   ar
    34    16    17   ar
    35     7     8   ar
    36     8     9   ar
    37    38    34   ar
    38    31    25   ar
    39     9     4   ar
    40    17    12   ar
    41    22    24    1
@<TRIPOS>MOLECULE
*****
 38 41 0 0 0
SMALL
GASTEIGER

@<TRIPOS>ATOM
      1 C          63.2022   84.8597   13.2294 C.3     1  UNL1        0.3254
      2 F          61.8814   85.0053   13.9254 F       1  UNL1       -0.1949
      3 F          64.3610   84.9208   12.2790 F       1  UNL1       -0.1949
      4 C          62.6952   85.6961   12.0922 C.ar    1  UNL1        0.1218
      5 C          62.1462   85.0361   10.8622 C.ar    1  UNL1        0.0208
      6 C          61.6392   85.8726    9.7250 C.ar    1  UNL1        0.0112
      7 C          61.6812   87.3691    9.8177 C.ar    1  UNL1        0.0611
      8 C          62.2303   88.0292   11.0478 C.ar    1  UNL1        0.1068
      9 N          62.7373   87.1927   12.1849 N.ar    1  UNL1       -0.2421
     10 C          61.1743   88.2056    8.6805 C.1     1  UNL1       -0.0582
     11 C          60.6673   89.0421    7.5434 C.1     1  UNL1       -0.0597
     12 C          60.1603   89.8786    6.4061 C.ar    1  UNL1        0.0420
     13 C          61.1276   90.5008    5.4433 C.ar    1  UNL1        0.0082
     14 C          60.6205   91.3373    4.3061 C.ar    1  UNL1        0.0045
     15 C          59.1462   91.5516    4.1319 C.ar    1  UNL1        0.0715
     16 C          58.1789   90.9295    5.0948 C.ar    1  UNL1        0.0045
     17 C          58.6859   90.0930    6.2319 C.ar    1  UNL1        0.0082
     18 C          58.6392   92.3882    2.9947 C.3     1  UNL1        0.4186
     19 F          58.1322   93.2247    1.8575 F       1  UNL1       -0.1659
     20 F          57.2279   92.0545    3.3784 F       1  UNL1       -0.1659
     21 F          60.0503   92.7219    2.6110 F       1  UNL1       -0.1659
     22 O          64.2161   83.1868   15.5039 O.3     1  UNL1       -0.3755
     23 C          63.7092   84.0232   14.3667 C.3     1  UNL1        0.1932
     24 H          65.0443   83.5646   15.8391 H       1  UNL1        0.2110
     25 C          63.5722   85.1967   15.2908 C.ar    1  UNL1        0.0368
     26 C          64.3148   86.4681   15.0039 C.ar    1  UNL1        0.0028
     27 C          64.1779   87.6416   15.9280 C.ar    1  UNL1        0.0295
     28 C          63.2984   87.5438   17.1392 C.ar    1  UNL1        0.1424
     29 F          63.1614   88.7173   18.0633 F       1  UNL1       -0.2041
     30 C          62.5558   86.2725   17.4261 C.ar    1  UNL1        0.0590
     31 C          62.6927   85.0989   16.5020 C.ar    1  UNL1        0.1408
     32 F          61.9501   83.8277   16.7889 F       1  UNL1       -0.2043
     33 C          63.8462   82.8496   13.4425 C.3     1  UNL1        0.1679
     34 N          62.8611   81.7206   13.5129 N.ar    1  UNL1       -0.2078
     35 C          62.9561   80.4202   12.7714 C.ar    1  UNL1        0.2216
     36 N          61.7618   79.5896   13.1373 N.ar    1  UNL1       -0.1048
     37 N          60.9288   80.3768   14.1050 N.ar    1  UNL1       -0.0226
     38 N          61.6082   81.6938   14.3371 N.ar    1  UNL1       -0.0428
@<TRIPOS>BOND
     1    22    23    1
     2    23    33    1
     3    33    34    1
     4    34    35   ar
     5    35    36   ar
     6    36    37   ar
     7    37    38   ar
     8    23    25    1
     9    25    26   ar
    10    26    27   ar
    11    27    28   ar
    12    28    29    1
    13    28    30   ar
    14    30    31   ar
    15    31    32    1
    16    23     1    1
    17     1     2    1
    18     1     3    1
    19     1     4    1
    20     4     5   ar
    21     5     6   ar
    22     6     7   ar
    23     7    10    1
    24    10    11    3
    25    11    12    1
    26    12    13   ar
    27    13    14   ar
    28    14    15   ar
    29    15    18    1
    30    18    19    1
    31    18    20    1
    32    18    21    1
    33    15    16   ar
    34    16    17   ar
    35     7     8   ar
    36     8     9   ar
    37    38    34   ar
    38    31    25   ar
    39     9     4   ar
    40    17    12   ar
    41    22    24    1
@<TRIPOS>MOLECULE
*****
 38 41 0 0 0
SMALL
GASTEIGER

@<TRIPOS>ATOM
      1 C          65.5576   92.3032   12.7945 C.3     1  UNL1        0.3254
      2 F          65.7871   92.0871   11.3280 F       1  UNL1       -0.1949
      3 F          65.2071   92.1745   14.2473 F       1  UNL1       -0.1949
      4 C          65.0292   90.9048   12.9179 C.ar    1  UNL1        0.1218
      5 C          65.3859   90.0709   14.1126 C.ar    1  UNL1        0.0208
      6 C          64.8575   88.6725   14.2360 C.ar    1  UNL1        0.0112
      7 C          63.9723   88.1080   13.1647 C.ar    1  UNL1        0.0611
      8 C          63.6155   88.9419   11.9700 C.ar    1  UNL1        0.1068
      9 N          64.1440   90.3403   11.8466 N.ar    1  UNL1       -0.2421
     10 C          63.4438   86.7096   13.2881 C.1     1  UNL1       -0.0582
     11 C          62.9153   85.3113   13.4114 C.1     1  UNL1       -0.0597
     12 C          62.3868   83.9128   13.5347 C.ar    1  UNL1        0.0420
     13 C          62.4483   82.9816   12.3605 C.ar    1  UNL1        0.0082
     14 C          61.9198   81.5832   12.4838 C.ar    1  UNL1        0.0045
     15 C          61.3299   81.1161   13.7814 C.ar    1  UNL1        0.0715
     16 C          61.2685   82.0473   14.9557 C.ar    1  UNL1        0.0045
     17 C          61.7970   83.4457   14.8324 C.ar    1  UNL1        0.0082
     18 C          60.8014   79.7177   13.9048 C.3     1  UNL1        0.4186
     19 F          60.2730   78.3193   14.0281 F       1  UNL1       -0.1659
     20 F          59.5047   80.2544   14.4345 F       1  UNL1       -0.1659
     21 F          62.0980   79.1810   13.3750 F       1  UNL1       -0.1659
     22 O          66.6145   95.1000   12.5476 O.3     1  UNL1       -0.3755
     23 C          66.0861   93.7016   12.6711 C.3     1  UNL1        0.1932
     24 H          66.4723   95.5742   13.3818 H       1  UNL1        0.2110
     25 C          67.0750   93.4244   13.7643 C.ar    1  UNL1        0.0368
     26 C          66.9486   94.1240   15.0852 C.ar    1  UNL1        0.0028
     27 C          67.9375   93.8468   16.1784 C.ar    1  UNL1        0.0295
     28 C          69.0529   92.8700   15.9507 C.ar    1  UNL1        0.1424
     29 F          70.0419   92.5928   17.0439 F       1  UNL1       -0.2041
     30 C          69.1794   92.1704   14.6299 C.ar    1  UNL1        0.0590
     31 C          68.1904   92.4476   13.5367 C.ar    1  UNL1        0.1408
     32 F          68.3169   91.7480   12.2159 F       1  UNL1       -0.2043
     33 C          65.0971   93.9789   11.5778 C.3     1  UNL1        0.1679
     34 N          65.4662   94.8919   10.4465 N.ar    1  UNL1       -0.2078
     35 C          66.4644   94.5981    9.3660 C.ar    1  UNL1        0.2216
     36 N          66.5170   95.7837    8.4487 N.ar    1  UNL1       -0.1048
     37 N          65.5513   96.8103    8.9622 N.ar    1  UNL1       -0.0226
     38 N          64.9019   96.2591   10.1968 N.ar    1  UNL1       -0.0428
@<TRIPOS>BOND
     1    22    23    1
     2    23    33    1
     3    33    34    1
     4    34    35   ar
     5    35    36   ar
     6    36    37   ar
     7    37    38   ar
     8    23    25    1
     9    25    26   ar
    10    26    27   ar
    11    27    28   ar
    12    28    29    1
    13    28    30   ar
    14    30    31   ar
    15    31    32    1
    16    23     1    1
    17     1     2    1
    18     1     3    1
    19     1     4    1
    20     4     5   ar
    21     5     6   ar
    22     6     7   ar
    23     7    10    1
    24    10    11    3
    25    11    12    1
    26    12    13   ar
    27    13    14   ar
    28    14    15   ar
    29    15    18    1
    30    18    19    1
    31    18    20    1
    32    18    21    1
    33    15    16   ar
    34    16    17   ar
    35     7     8   ar
    36     8     9   ar
    37    38    34   ar
    38    31    25   ar
    39     9     4   ar
    40    17    12   ar
    41    22    24    1
