@<TRIPOS>MOLECULE
*****
 29 32 0 0 0
SMALL
GASTEIGER

@<TRIPOS>ATOM
      1 C          63.8254   88.6944   13.3699 C.ar    1  UNL1        0.0912
      2 C          64.5042   89.6826   14.2715 C.ar    1  UNL1        0.0466
      3 C          64.5030   91.1411   13.9216 C.ar    1  UNL1        0.1631
      4 C          63.8231   91.6117   12.6700 C.ar    1  UNL1        0.1193
      5 N          63.1444   90.6235   11.7684 N.ar    1  UNL1       -0.2846
      6 C          62.3980   90.7901   10.4780 C.ar    1  UNL1        0.1023
      7 C          61.9379   89.4344   10.0304 C.ar    1  UNL1        0.1195
      8 N          62.3999   88.4300   11.0442 N.ar    1  UNL1       -0.2247
      9 C          63.1455   89.1649   12.1183 C.ar    1  UNL1        0.1524
     10 N          63.1225   86.2514   12.8338 N.am    1  UNL1       -0.2657
     11 C          63.8266   87.2358   13.7198 C.2     1  UNL1        0.2536
     12 O          64.5319   86.7616   14.9559 O.2     1  UNL1       -0.2697
     13 H          62.6596   86.5626   12.0225 H       1  UNL1        0.1566
     14 C          63.1262   81.8755   13.8837 C.ar    1  UNL1        0.1579
     15 C          63.9065   82.3633   12.6992 C.ar    1  UNL1        0.0414
     16 C          63.9053   83.8219   12.3492 C.ar    1  UNL1        0.0376
     17 C          63.1237   84.7928   13.1838 C.ar    1  UNL1        0.1346
     18 N          62.3434   84.3050   14.3684 N.ar    1  UNL1       -0.2258
     19 C          62.3447   82.8465   14.7183 C.ar    1  UNL1        0.1371
     20 C          62.2535   79.4628   13.4748 C.3     1  UNL1        0.2525
     21 O          63.1275   80.4170   14.2337 O.3     1  UNL1       -0.4699
     22 O          65.1818   92.1293   14.8232 O.3     1  UNL1       -0.4503
     23 C          66.6626   92.3452   14.7196 C.ar    1  UNL1        0.1667
     24 C          67.4236   91.7788   13.5577 C.ar    1  UNL1        0.1364
     25 N          68.9044   91.9948   13.4541 N.ar    1  UNL1       -0.2368
     26 C          69.6241   92.7770   14.5124 C.ar    1  UNL1        0.1286
     27 C          68.8631   93.3434   15.6743 C.ar    1  UNL1        0.1623
     28 F          69.5827   94.1257   16.7327 F       1  UNL1       -0.2024
     29 C          67.3823   93.1275   15.7779 C.ar    1  UNL1        0.0703
@<TRIPOS>BOND
     1    20    21    1
     2    21    14    1
     3    14    15   ar
     4    15    16   ar
     5    16    17   ar
     6    17    10    1
     7    10    11   am
     8    11    12    2
     9    11     1    1
    10     1     2   ar
    11     2     3   ar
    12     3    22    1
    13    22    23    1
    14    23    24   ar
    15    24    25   ar
    16    25    26   ar
    17    26    27   ar
    18    27    28    1
    19    27    29   ar
    20     3     4   ar
    21     4     5   ar
    22     5     6   ar
    23     6     7   ar
    24     7     8   ar
    25     8     9   ar
    26    17    18   ar
    27    18    19   ar
    28    19    14   ar
    29     9     1   ar
    30    29    23   ar
    31     9     5   ar
    32    10    13    1
@<TRIPOS>MOLECULE
*****
 29 32 0 0 0
SMALL
GASTEIGER

@<TRIPOS>ATOM
      1 C          63.4108   88.8949   12.7180 C.ar    1  UNL1        0.0912
      2 C          64.4652   89.9006   13.0745 C.ar    1  UNL1        0.0466
      3 C          64.3555   91.3109   12.5758 C.ar    1  UNL1        0.1631
      4 C          63.1915   91.7158   11.7206 C.ar    1  UNL1        0.1193
      5 N          62.1372   90.7101   11.3641 N.ar    1  UNL1       -0.2846
      6 C          60.8853   90.8161   10.5447 C.ar    1  UNL1        0.1023
      7 C          60.2212   89.4711   10.5370 C.ar    1  UNL1        0.1195
      8 N          61.0627   88.5339   11.3516 N.ar    1  UNL1       -0.2247
      9 C          62.2469   89.2997   11.8628 C.ar    1  UNL1        0.1524
     10 N          62.9392   86.3581   12.4147 N.am    1  UNL1       -0.2657
     11 C          63.5205   87.4845   13.2167 C.2     1  UNL1        0.2536
     12 O          64.2115   87.2005   14.5175 O.2     1  UNL1       -0.2697
     13 H          62.4857   86.5444   11.5610 H       1  UNL1        0.1566
     14 C          63.2684   82.1268   13.9110 C.ar    1  UNL1        0.1579
     15 C          63.9623   82.5304   12.6439 C.ar    1  UNL1        0.0414
     16 C          63.8526   83.9408   12.1452 C.ar    1  UNL1        0.0376
     17 C          63.0489   84.9477   12.9135 C.ar    1  UNL1        0.1346
     18 N          62.3549   84.5441   14.1806 N.ar    1  UNL1       -0.2258
     19 C          62.4647   83.1338   14.6793 C.ar    1  UNL1        0.1371
     20 C          62.5029   79.6454   13.8292 C.3     1  UNL1        0.2525
     21 O          63.3781   80.7165   14.4097 O.3     1  UNL1       -0.4699
     22 O          65.4099   92.3166   12.9323 O.3     1  UNL1       -0.4503
     23 C          66.1541   93.0392   11.8487 C.ar    1  UNL1        0.1667
     24 C          66.1793   94.5388   11.8278 C.ar    1  UNL1        0.1364
     25 N          66.9234   95.2614   10.7442 N.ar    1  UNL1       -0.2368
     26 C          67.6424   94.4843    9.6816 C.ar    1  UNL1        0.1286
     27 C          67.6172   92.9847    9.7025 C.ar    1  UNL1        0.1623
     28 F          68.3362   92.2075    8.6398 F       1  UNL1       -0.2024
     29 C          66.8731   92.2621   10.7861 C.ar    1  UNL1        0.0703
@<TRIPOS>BOND
     1    20    21    1
     2    21    14    1
     3    14    15   ar
     4    15    16   ar
     5    16    17   ar
     6    17    10    1
     7    10    11   am
     8    11    12    2
     9    11     1    1
    10     1     2   ar
    11     2     3   ar
    12     3    22    1
    13    22    23    1
    14    23    24   ar
    15    24    25   ar
    16    25    26   ar
    17    26    27   ar
    18    27    28    1
    19    27    29   ar
    20     3     4   ar
    21     4     5   ar
    22     5     6   ar
    23     6     7   ar
    24     7     8   ar
    25     8     9   ar
    26    17    18   ar
    27    18    19   ar
    28    19    14   ar
    29     9     1   ar
    30    29    23   ar
    31     9     5   ar
    32    10    13    1
@<TRIPOS>MOLECULE
*****
 29 32 0 0 0
SMALL
GASTEIGER

@<TRIPOS>ATOM
      1 C          62.9074   88.2156   12.2046 C.ar    1  UNL1        0.0912
      2 C          63.1753   86.7542   11.9988 C.ar    1  UNL1        0.0466
      3 C          62.2849   85.9478   11.1006 C.ar    1  UNL1        0.1631
      4 C          61.1266   86.6027   10.4082 C.ar    1  UNL1        0.1193
      5 N          60.8588   88.0642   10.6140 N.ar    1  UNL1       -0.2846
      6 C          59.8006   88.9771   10.0692 C.ar    1  UNL1        0.1023
      7 C          60.0370   90.3478   10.6308 C.ar    1  UNL1        0.1195
      8 N          61.2413   90.2820   11.5226 N.ar    1  UNL1       -0.2247
      9 C          61.7492   88.8707   11.5122 C.ar    1  UNL1        0.1524
     10 N          64.0257   90.4779   12.8224 N.am    1  UNL1       -0.2657
     11 C          63.7978   89.0221   13.1029 C.2     1  UNL1        0.2536
     12 O          64.4604   88.3727   14.2816 O.2     1  UNL1       -0.2697
     13 H          63.5908   90.9042   12.0488 H       1  UNL1        0.1566
     14 C          66.6971   92.8971   15.5172 C.ar    1  UNL1        0.1579
     15 C          67.0972   92.6459   14.0935 C.ar    1  UNL1        0.0414
     16 C          66.2067   91.8395   13.1953 C.ar    1  UNL1        0.0376
     17 C          64.9161   91.2843   13.7207 C.ar    1  UNL1        0.1346
     18 N          64.5160   91.5355   15.1444 N.ar    1  UNL1       -0.2258
     19 C          65.4064   92.3419   16.0425 C.ar    1  UNL1        0.1371
     20 C          69.0020   93.9911   16.0074 C.3     1  UNL1        0.2525
     21 O          67.5875   93.7034   16.4154 O.3     1  UNL1       -0.4699
     22 O          62.5528   84.4862   10.8948 O.3     1  UNL1       -0.4503
     23 C          62.5243   83.5466   12.0637 C.ar    1  UNL1        0.1667
     24 C          62.5102   84.0893   13.4620 C.ar    1  UNL1        0.1364
     25 N          62.4818   83.1497   14.6309 N.ar    1  UNL1       -0.2368
     26 C          62.4674   81.6674   14.4015 C.ar    1  UNL1        0.1286
     27 C          62.4815   81.1247   13.0032 C.ar    1  UNL1        0.1623
     28 F          62.4672   79.6424   12.7737 F       1  UNL1       -0.2024
     29 C          62.5100   82.0643   11.8343 C.ar    1  UNL1        0.0703
@<TRIPOS>BOND
     1    20    21    1
     2    21    14    1
     3    14    15   ar
     4    15    16   ar
     5    16    17   ar
     6    17    10    1
     7    10    11   am
     8    11    12    2
     9    11     1    1
    10     1     2   ar
    11     2     3   ar
    12     3    22    1
    13    22    23    1
    14    23    24   ar
    15    24    25   ar
    16    25    26   ar
    17    26    27   ar
    18    27    28    1
    19    27    29   ar
    20     3     4   ar
    21     4     5   ar
    22     5     6   ar
    23     6     7   ar
    24     7     8   ar
    25     8     9   ar
    26    17    18   ar
    27    18    19   ar
    28    19    14   ar
    29     9     1   ar
    30    29    23   ar
    31     9     5   ar
    32    10    13    1
@<TRIPOS>MOLECULE
*****
 29 32 0 0 0
SMALL
GASTEIGER

@<TRIPOS>ATOM
      1 C          62.1944   87.9469   11.2869 C.ar    1  UNL1        0.0912
      2 C          62.8999   88.9767   12.1186 C.ar    1  UNL1        0.0466
      3 C          62.7423   90.4340   11.8004 C.ar    1  UNL1        0.1631
      4 C          61.8792   90.8616   10.6505 C.ar    1  UNL1        0.1193
      5 N          61.1738   89.8318    9.8188 N.ar    1  UNL1       -0.2846
      6 C          60.2638   89.9514    8.6324 C.ar    1  UNL1        0.1023
      7 C          59.8590   88.5680    8.2173 C.ar    1  UNL1        0.1195
      8 N          60.5187   87.5933    9.1472 N.ar    1  UNL1       -0.2247
      9 C          61.3313   88.3744   10.1370 C.ar    1  UNL1        0.1524
     10 N          63.0242   86.0682   12.8782 N.am    1  UNL1       -0.2657
     11 C          62.3520   86.4895   11.6051 C.2     1  UNL1        0.2536
     12 O          61.8374   85.4534   10.6502 O.2     1  UNL1       -0.2697
     13 H          63.3619   86.7482   13.5049 H       1  UNL1        0.1566
     14 C          63.4967   81.6960   13.8328 C.ar    1  UNL1        0.1579
     15 C          62.5470   82.5395   14.6306 C.ar    1  UNL1        0.0414
     16 C          62.3895   83.9969   14.3124 C.ar    1  UNL1        0.0376
     17 C          63.1817   84.6108   13.1964 C.ar    1  UNL1        0.1346
     18 N          64.1314   83.7673   12.3985 N.ar    1  UNL1       -0.2258
     19 C          64.2889   82.3100   12.7167 C.ar    1  UNL1        0.1371
     20 C          62.5997   79.2600   13.7262 C.3     1  UNL1        0.2525
     21 O          63.6542   80.2387   14.1510 O.3     1  UNL1       -0.4699
     22 O          63.4479   91.4639   12.6322 O.3     1  UNL1       -0.4503
     23 C          64.8601   91.8512   12.3073 C.ar    1  UNL1        0.1667
     24 C          65.9295   91.7336   13.3526 C.ar    1  UNL1        0.1364
     25 N          67.3417   92.1209   13.0277 N.ar    1  UNL1       -0.2368
     26 C          67.6846   92.6258   11.6575 C.ar    1  UNL1        0.1286
     27 C          66.6153   92.7434   10.6122 C.ar    1  UNL1        0.1623
     28 F          66.9581   93.2483    9.2419 F       1  UNL1       -0.2024
     29 C          65.2030   92.3561   10.9371 C.ar    1  UNL1        0.0703
@<TRIPOS>BOND
     1    20    21    1
     2    21    14    1
     3    14    15   ar
     4    15    16   ar
     5    16    17   ar
     6    17    10    1
     7    10    11   am
     8    11    12    2
     9    11     1    1
    10     1     2   ar
    11     2     3   ar
    12     3    22    1
    13    22    23    1
    14    23    24   ar
    15    24    25   ar
    16    25    26   ar
    17    26    27   ar
    18    27    28    1
    19    27    29   ar
    20     3     4   ar
    21     4     5   ar
    22     5     6   ar
    23     6     7   ar
    24     7     8   ar
    25     8     9   ar
    26    17    18   ar
    27    18    19   ar
    28    19    14   ar
    29     9     1   ar
    30    29    23   ar
    31     9     5   ar
    32    10    13    1
@<TRIPOS>MOLECULE
*****
 29 32 0 0 0
SMALL
GASTEIGER

@<TRIPOS>ATOM
      1 C          62.4340   88.2281   11.2977 C.ar    1  UNL1        0.0912
      2 C          62.6550   86.7914   11.6679 C.ar    1  UNL1        0.0466
      3 C          61.9182   85.7072   10.9389 C.ar    1  UNL1        0.1631
      4 C          60.9604   86.0596    9.8396 C.ar    1  UNL1        0.1193
      5 N          60.7394   87.4963    9.4694 N.ar    1  UNL1       -0.2846
      6 C          59.8645   88.1436    8.4372 C.ar    1  UNL1        0.1023
      7 C          60.0606   89.6279    8.5283 C.ar    1  UNL1        0.1195
      8 N          61.0567   89.8980    9.6169 N.ar    1  UNL1       -0.2247
      9 C          61.4762   88.5805   10.1985 C.ar    1  UNL1        0.1524
     10 N          63.7099   89.0580   13.4033 N.am    1  UNL1       -0.2657
     11 C          63.1708   89.3123   12.0268 C.2     1  UNL1        0.2536
     12 O          63.3685   90.6510   11.3794 O.2     1  UNL1       -0.2697
     13 H          63.5802   88.1794   13.8282 H       1  UNL1        0.1566
     14 C          65.9202   92.3109   15.5905 C.ar    1  UNL1        0.1579
     15 C          64.6743   91.7217   16.1826 C.ar    1  UNL1        0.0414
     16 C          63.9376   90.6375   15.4535 C.ar    1  UNL1        0.0376
     17 C          64.4467   90.1423   14.1323 C.ar    1  UNL1        0.1346
     18 N          65.6927   90.7314   13.5402 N.ar    1  UNL1       -0.2258
     19 C          66.4294   91.8157   14.2692 C.ar    1  UNL1        0.1371
     20 C          68.0734   93.7201   15.9479 C.3     1  UNL1        0.2525
     21 O          66.6569   93.3951   16.3195 O.3     1  UNL1       -0.4699
     22 O          62.1392   84.2704   11.3092 O.3     1  UNL1       -0.4503
     23 C          62.7996   83.9244   12.6108 C.ar    1  UNL1        0.1667
     24 C          62.5974   82.5672   13.2168 C.ar    1  UNL1        0.1364
     25 N          63.2578   82.2212   14.5184 N.ar    1  UNL1       -0.2368
     26 C          64.1203   83.2322   15.2140 C.ar    1  UNL1        0.1286
     27 C          64.3224   84.5894   14.6079 C.ar    1  UNL1        0.1623
     28 F          65.1849   85.6006   15.3034 F       1  UNL1       -0.2024
     29 C          63.6621   84.9354   13.3063 C.ar    1  UNL1        0.0703
@<TRIPOS>BOND
     1    20    21    1
     2    21    14    1
     3    14    15   ar
     4    15    16   ar
     5    16    17   ar
     6    17    10    1
     7    10    11   am
     8    11    12    2
     9    11     1    1
    10     1     2   ar
    11     2     3   ar
    12     3    22    1
    13    22    23    1
    14    23    24   ar
    15    24    25   ar
    16    25    26   ar
    17    26    27   ar
    18    27    28    1
    19    27    29   ar
    20     3     4   ar
    21     4     5   ar
    22     5     6   ar
    23     6     7   ar
    24     7     8   ar
    25     8     9   ar
    26    17    18   ar
    27    18    19   ar
    28    19    14   ar
    29     9     1   ar
    30    29    23   ar
    31     9     5   ar
    32    10    13    1
@<TRIPOS>MOLECULE
*****
 29 32 0 0 0
SMALL
GASTEIGER

@<TRIPOS>ATOM
      1 C          62.6286   88.9000   11.2055 C.ar    1  UNL1        0.0912
      2 C          63.1398   87.9397   12.2382 C.ar    1  UNL1        0.0466
      3 C          62.5843   86.5482   12.3086 C.ar    1  UNL1        0.1631
      4 C          61.5174   86.1169   11.3463 C.ar    1  UNL1        0.1193
      5 N          61.0062   87.0772   10.3137 N.ar    1  UNL1       -0.2846
      6 C          59.9680   86.9377    9.2401 C.ar    1  UNL1        0.1023
      7 C          59.8819   88.2430    8.5061 C.ar    1  UNL1        0.1195
      8 N          60.8669   89.1893    9.1261 N.ar    1  UNL1       -0.2247
      9 C          61.5618   88.4688   10.2433 C.ar    1  UNL1        0.1524
     10 N          64.4704   90.6218   11.8326 N.am    1  UNL1       -0.2657
     11 C          63.1842   90.2915   11.1351 C.2     1  UNL1        0.2536
     12 O          62.4534   91.3529   10.3671 O.2     1  UNL1       -0.2697
     13 H          64.9500   89.9252   12.3367 H       1  UNL1        0.1566
     14 C          66.1369   94.7965   11.6214 C.ar    1  UNL1        0.1579
     15 C          66.2187   94.0202   12.9023 C.ar    1  UNL1        0.0414
     16 C          65.6632   92.6286   12.9726 C.ar    1  UNL1        0.0376
     17 C          65.0259   92.0134   11.7622 C.ar    1  UNL1        0.1346
     18 N          64.9441   92.7897   10.4813 N.ar    1  UNL1       -0.2258
     19 C          65.4996   94.1812   10.4109 C.ar    1  UNL1        0.1371
     20 C          66.8783   96.8550   10.2203 C.3     1  UNL1        0.2525
     21 O          66.6924   96.1880   11.5510 O.3     1  UNL1       -0.4699
     22 O          63.0956   85.5879   13.3413 O.3     1  UNL1       -0.4503
     23 C          62.8338   84.1183   13.1937 C.ar    1  UNL1        0.1667
     24 C          62.2509   83.3417   14.3370 C.ar    1  UNL1        0.1364
     25 N          61.9891   81.8721   14.1894 N.ar    1  UNL1       -0.2368
     26 C          62.3103   81.1791   12.8985 C.ar    1  UNL1        0.1286
     27 C          62.8932   81.9556   11.7552 C.ar    1  UNL1        0.1623
     28 F          63.2145   81.2626   10.4642 F       1  UNL1       -0.2024
     29 C          63.1550   83.4252   11.9028 C.ar    1  UNL1        0.0703
@<TRIPOS>BOND
     1    20    21    1
     2    21    14    1
     3    14    15   ar
     4    15    16   ar
     5    16    17   ar
     6    17    10    1
     7    10    11   am
     8    11    12    2
     9    11     1    1
    10     1     2   ar
    11     2     3   ar
    12     3    22    1
    13    22    23    1
    14    23    24   ar
    15    24    25   ar
    16    25    26   ar
    17    26    27   ar
    18    27    28    1
    19    27    29   ar
    20     3     4   ar
    21     4     5   ar
    22     5     6   ar
    23     6     7   ar
    24     7     8   ar
    25     8     9   ar
    26    17    18   ar
    27    18    19   ar
    28    19    14   ar
    29     9     1   ar
    30    29    23   ar
    31     9     5   ar
    32    10    13    1
@<TRIPOS>MOLECULE
*****
 29 32 0 0 0
SMALL
GASTEIGER

@<TRIPOS>ATOM
      1 C          63.4498   89.9595   12.3461 C.ar    1  UNL1        0.0912
      2 C          63.1927   89.4348   13.7276 C.ar    1  UNL1        0.0466
      3 C          63.7678   90.1433   14.9180 C.ar    1  UNL1        0.1631
      4 C          64.6001   91.3766   14.7270 C.ar    1  UNL1        0.1193
      5 N          64.8572   91.9013   13.3455 N.ar    1  UNL1       -0.2846
      6 C          65.6331   93.0855   12.8500 C.ar    1  UNL1        0.1023
      7 C          65.5375   93.1089   11.3532 C.ar    1  UNL1        0.1195
      8 N          64.7025   91.9391   10.9237 N.ar    1  UNL1       -0.2247
      9 C          64.2821   91.1928   12.1550 C.ar    1  UNL1        0.1524
     10 N          62.6454   87.7694   11.2031 N.am    1  UNL1       -0.2657
     11 C          62.8747   89.2510   11.1556 C.2     1  UNL1        0.2536
     12 O          62.5288   90.0242    9.9175 O.2     1  UNL1       -0.2697
     13 H          62.8723   87.2620   12.0157 H       1  UNL1        0.1566
     14 C          60.9200   85.6440    7.6315 C.ar    1  UNL1        0.1579
     15 C          62.3398   85.3887    8.0427 C.ar    1  UNL1        0.0414
     16 C          62.9149   86.0971    9.2332 C.ar    1  UNL1        0.0376
     17 C          62.0702   87.0610   10.0126 C.ar    1  UNL1        0.1346
     18 N          60.6504   87.3164    9.6015 N.ar    1  UNL1       -0.2258
     19 C          60.0754   86.6080    8.4110 C.ar    1  UNL1        0.1371
     20 C          61.2258   84.0796    5.5799 C.3     1  UNL1        0.2525
     21 O          60.3450   84.9356    6.4411 O.3     1  UNL1       -0.4699
     22 O          63.5107   89.6185   16.2996 O.3     1  UNL1       -0.4503
     23 C          63.3269   88.1463   16.5205 C.ar    1  UNL1        0.1667
     24 C          62.4211   87.6591   17.6123 C.ar    1  UNL1        0.1364
     25 N          62.2373   86.1869   17.8333 N.ar    1  UNL1       -0.2368
     26 C          62.9593   85.2019   16.9624 C.ar    1  UNL1        0.1286
     27 C          63.8651   85.6891   15.8705 C.ar    1  UNL1        0.1623
     28 F          64.5872   84.7042   14.9995 F       1  UNL1       -0.2024
     29 C          64.0489   87.1613   15.6496 C.ar    1  UNL1        0.0703
@<TRIPOS>BOND
     1    20    21    1
     2    21    14    1
     3    14    15   ar
     4    15    16   ar
     5    16    17   ar
     6    17    10    1
     7    10    11   am
     8    11    12    2
     9    11     1    1
    10     1     2   ar
    11     2     3   ar
    12     3    22    1
    13    22    23    1
    14    23    24   ar
    15    24    25   ar
    16    25    26   ar
    17    26    27   ar
    18    27    28    1
    19    27    29   ar
    20     3     4   ar
    21     4     5   ar
    22     5     6   ar
    23     6     7   ar
    24     7     8   ar
    25     8     9   ar
    26    17    18   ar
    27    18    19   ar
    28    19    14   ar
    29     9     1   ar
    30    29    23   ar
    31     9     5   ar
    32    10    13    1
@<TRIPOS>MOLECULE
*****
 29 32 0 0 0
SMALL
GASTEIGER

@<TRIPOS>ATOM
      1 C          61.8762   87.5312   10.3629 C.ar    1  UNL1        0.0912
      2 C          62.5584   88.7429   10.9253 C.ar    1  UNL1        0.0466
      3 C          62.1985   90.1085   10.4201 C.ar    1  UNL1        0.1631
      4 C          61.1563   90.2626    9.3523 C.ar    1  UNL1        0.1193
      5 N          60.4740   89.0509    8.7899 N.ar    1  UNL1       -0.2846
      6 C          59.4159   88.8923    7.7386 C.ar    1  UNL1        0.1023
      7 C          59.1219   87.4285    7.5942 C.ar    1  UNL1        0.1195
      8 N          59.9983   86.6825    8.5562 N.ar    1  UNL1       -0.2247
      9 C          60.8340   87.6852    9.2952 C.ar    1  UNL1        0.1524
     10 N          62.0628   85.8334   12.3206 N.am    1  UNL1       -0.2657
     11 C          62.2361   86.1655   10.8682 C.2     1  UNL1        0.2536
     12 O          62.7695   85.1318    9.9209 O.2     1  UNL1       -0.2697
     13 H          61.7128   86.5118   12.9423 H       1  UNL1        0.1566
     14 C          63.1428   81.7363   13.8364 C.ar    1  UNL1        0.1579
     15 C          63.0723   82.8936   14.7881 C.ar    1  UNL1        0.0414
     16 C          62.7123   84.2593   14.2828 C.ar    1  UNL1        0.0376
     17 C          62.4228   84.4677   12.8258 C.ar    1  UNL1        0.1346
     18 N          62.4933   83.3104   11.8742 N.ar    1  UNL1       -0.2258
     19 C          62.8533   81.9448   12.3794 C.ar    1  UNL1        0.1371
     20 C          62.7456   79.1689   13.8594 C.3     1  UNL1        0.2525
     21 O          63.5028   80.3707   14.3416 O.3     1  UNL1       -0.4699
     22 O          62.8808   91.3202   10.9826 O.3     1  UNL1       -0.4503
     23 C          63.7676   91.1910   12.1854 C.ar    1  UNL1        0.1667
     24 C          65.0309   91.9947   12.2758 C.ar    1  UNL1        0.1364
     25 N          65.9177   91.8655   13.4786 N.ar    1  UNL1       -0.2368
     26 C          65.5412   90.9325   14.5912 C.ar    1  UNL1        0.1286
     27 C          64.2779   90.1288   14.5009 C.ar    1  UNL1        0.1623
     28 F          63.9014   89.1957   15.6134 F       1  UNL1       -0.2024
     29 C          63.3912   90.2580   13.2980 C.ar    1  UNL1        0.0703
@<TRIPOS>BOND
     1    20    21    1
     2    21    14    1
     3    14    15   ar
     4    15    16   ar
     5    16    17   ar
     6    17    10    1
     7    10    11   am
     8    11    12    2
     9    11     1    1
    10     1     2   ar
    11     2     3   ar
    12     3    22    1
    13    22    23    1
    14    23    24   ar
    15    24    25   ar
    16    25    26   ar
    17    26    27   ar
    18    27    28    1
    19    27    29   ar
    20     3     4   ar
    21     4     5   ar
    22     5     6   ar
    23     6     7   ar
    24     7     8   ar
    25     8     9   ar
    26    17    18   ar
    27    18    19   ar
    28    19    14   ar
    29     9     1   ar
    30    29    23   ar
    31     9     5   ar
    32    10    13    1
@<TRIPOS>MOLECULE
*****
 29 32 0 0 0
SMALL
GASTEIGER

@<TRIPOS>ATOM
      1 C          62.8733   88.7473   12.0236 C.ar    1  UNL1        0.0912
      2 C          62.9391   87.3861   12.6503 C.ar    1  UNL1        0.0466
      3 C          62.0864   86.2731   12.1175 C.ar    1  UNL1        0.1631
      4 C          61.1677   86.5213   10.9579 C.ar    1  UNL1        0.1193
      5 N          61.1019   87.8825   10.3312 N.ar    1  UNL1       -0.2846
      6 C          60.2979   88.4222    9.1857 C.ar    1  UNL1        0.1023
      7 C          60.6538   89.8688    9.0106 C.ar    1  UNL1        0.1195
      8 N          61.6778   90.2231   10.0478 N.ar    1  UNL1       -0.2247
      9 C          61.9548   88.9955   10.8640 C.ar    1  UNL1        0.1524
     10 N          64.4478   89.6937   13.8608 N.am    1  UNL1       -0.2657
     11 C          63.7262   89.8603   12.5564 C.2     1  UNL1        0.2536
     12 O          63.8573   91.1400   11.7848 O.2     1  UNL1       -0.2697
     13 H          64.3618   88.8538   14.3672 H       1  UNL1        0.1566
     14 C          67.0061   93.0329   15.4592 C.ar    1  UNL1        0.1579
     15 C          65.7833   92.5987   16.2117 C.ar    1  UNL1        0.0414
     16 C          64.9306   91.4857   15.6789 C.ar    1  UNL1        0.0376
     17 C          65.3006   90.8068   14.3936 C.ar    1  UNL1        0.1346
     18 N          66.5234   91.2409   13.6411 N.ar    1  UNL1       -0.2258
     19 C          67.3761   92.3539   14.1738 C.ar    1  UNL1        0.1371
     20 C          69.3539   94.0430   15.9258 C.3     1  UNL1        0.2525
     21 O          67.8588   94.1459   15.9920 O.3     1  UNL1       -0.4699
     22 O          62.1522   84.9118   12.7442 O.3     1  UNL1       -0.4503
     23 C          62.7371   83.7616   11.9795 C.ar    1  UNL1        0.1667
     24 C          63.6084   84.0199   10.7862 C.ar    1  UNL1        0.1364
     25 N          64.1934   82.8697   10.0215 N.ar    1  UNL1       -0.2368
     26 C          63.9070   81.4610   10.4502 C.ar    1  UNL1        0.1286
     27 C          63.0357   81.2027   11.6435 C.ar    1  UNL1        0.1623
     28 F          62.7492   79.7940   12.0722 F       1  UNL1       -0.2024
     29 C          62.4507   82.3529   12.4082 C.ar    1  UNL1        0.0703
@<TRIPOS>BOND
     1    20    21    1
     2    21    14    1
     3    14    15   ar
     4    15    16   ar
     5    16    17   ar
     6    17    10    1
     7    10    11   am
     8    11    12    2
     9    11     1    1
    10     1     2   ar
    11     2     3   ar
    12     3    22    1
    13    22    23    1
    14    23    24   ar
    15    24    25   ar
    16    25    26   ar
    17    26    27   ar
    18    27    28    1
    19    27    29   ar
    20     3     4   ar
    21     4     5   ar
    22     5     6   ar
    23     6     7   ar
    24     7     8   ar
    25     8     9   ar
    26    17    18   ar
    27    18    19   ar
    28    19    14   ar
    29     9     1   ar
    30    29    23   ar
    31     9     5   ar
    32    10    13    1
