@<TRIPOS>MOLECULE
*****
 25 28 0 0 0
SMALL
GASTEIGER

@<TRIPOS>ATOM
      1 C          64.3632   90.8814   13.9628 C.ar    1  UNL1        0.1386
      2 C          64.5401   89.4454   14.3585 C.ar    1  UNL1        0.0384
      3 C          63.9040   88.3591   13.5429 C.ar    1  UNL1        0.0203
      4 C          63.0912   88.7087   12.3317 C.ar    1  UNL1        0.0602
      5 C          62.9143   90.1447   11.9361 C.ar    1  UNL1        0.0204
      6 C          63.5504   91.2311   12.7516 C.ar    1  UNL1        0.0384
      7 C          62.0641   90.1839   10.7009 C.ar    1  UNL1        0.0233
      8 C          61.7155   88.7721   10.3332 C.ar    1  UNL1        0.1140
      9 N          62.3502   87.8603   11.3410 N.ar    1  UNL1       -0.3219
     10 C          62.1715   86.3755   11.2265 C.3     1  UNL1        0.1273
     11 C          61.3581   85.8023   10.1041 C.3     1  UNL1        0.1142
     12 N          60.7233   86.7141    9.0963 N.am    1  UNL1       -0.2978
     13 C          60.9020   88.1990    9.2108 C.2     1  UNL1        0.2618
     14 O          60.2672   89.1107    8.2029 O.2     1  UNL1       -0.2686
     15 H          60.1894   86.3379    8.3596 H       1  UNL1        0.1499
     16 O          64.9993   91.9679   14.7784 O.3     1  UNL1       -0.4754
     17 C          66.3558   92.4887   14.4062 C.3     1  UNL1        0.2068
     18 C          66.5006   93.4634   13.2752 C.3     1  UNL1        0.0646
     19 C          66.8114   92.9684   11.8937 C.3     1  UNL1        0.0759
     20 C          68.4451   92.3857    9.1296 C.3     1  UNL1        0.0173
     21 C          67.7870   93.6791    9.5088 C.3     1  UNL1        0.0576
     22 C          67.7643   94.9318    8.6841 C.3     1  UNL1        0.0174
     23 C          66.9993   95.9740    9.4449 C.3     1  UNL1        0.0187
     24 C          66.5492   95.3653   10.7399 C.3     1  UNL1        0.0721
     25 N          67.0360   93.9470   10.7794 N.3     1  UNL1       -0.2738
@<TRIPOS>BOND
     1    21    20    1
     2    21    22    1
     3    22    23    1
     4    23    24    1
     5    24    25    1
     6    25    19    1
     7    19    18    1
     8    18    17    1
     9    17    16    1
    10    16     1    1
    11     1     2   ar
    12     2     3   ar
    13     3     4   ar
    14     4     5   ar
    15     5     6   ar
    16     5     7   ar
    17     7     8   ar
    18     8     9   ar
    19     9    10    1
    20    10    11    1
    21    11    12    1
    22    12    13   am
    23    13    14    2
    24    25    21    1
    25     6     1   ar
    26    13     8    1
    27     9     4   ar
    28    12    15    1
@<TRIPOS>MOLECULE
*****
 25 28 0 0 0
SMALL
GASTEIGER

@<TRIPOS>ATOM
      1 C          62.0042   88.7732   11.4884 C.ar    1  UNL1        0.1386
      2 C          62.1014   89.5599   10.2150 C.ar    1  UNL1        0.0384
      3 C          63.0080   90.7525   10.1376 C.ar    1  UNL1        0.0203
      4 C          63.8173   91.1582   11.3336 C.ar    1  UNL1        0.0602
      5 C          63.7201   90.3715   12.6070 C.ar    1  UNL1        0.0204
      6 C          62.8136   89.1790   12.6844 C.ar    1  UNL1        0.0384
      7 C          64.6322   91.0060   13.6146 C.ar    1  UNL1        0.0233
      8 C          65.2932   92.1849   12.9640 C.ar    1  UNL1        0.1140
      9 N          64.7896   92.2790   11.5542 N.ar    1  UNL1       -0.3219
     10 C          65.2813   93.3731   10.6536 C.3     1  UNL1        0.1273
     11 C          66.2767   94.3731   11.1627 C.3     1  UNL1        0.1142
     12 N          66.7803   94.2789   12.5725 N.am    1  UNL1       -0.2978
     13 C          66.2886   93.1848   13.4732 C.2     1  UNL1        0.2618
     14 O          66.7922   93.0907   14.8830 O.2     1  UNL1       -0.2686
     15 H          67.4336   94.9353   12.9067 H       1  UNL1        0.1499
     16 O          61.0977   87.5806   11.5659 O.3     1  UNL1       -0.4754
     17 C          61.2921   86.4284   10.6254 C.3     1  UNL1        0.2068
     18 C          62.3928   85.4389   10.8689 C.3     1  UNL1        0.0646
     19 C          62.7972   85.0972   12.2724 C.3     1  UNL1        0.0759
     20 C          62.3913   84.2102   15.3865 C.3     1  UNL1        0.0173
     21 C          62.4571   83.2851   14.2076 C.3     1  UNL1        0.0576
     22 C          62.3478   81.7898   14.2532 C.3     1  UNL1        0.0174
     23 C          62.4669   81.2733   12.8499 C.3     1  UNL1        0.0187
     24 C          62.6497   82.4494   11.9371 C.3     1  UNL1        0.0721
     25 N          62.6437   83.6928   12.7762 N.3     1  UNL1       -0.2738
@<TRIPOS>BOND
     1    21    20    1
     2    21    22    1
     3    22    23    1
     4    23    24    1
     5    24    25    1
     6    25    19    1
     7    19    18    1
     8    18    17    1
     9    17    16    1
    10    16     1    1
    11     1     2   ar
    12     2     3   ar
    13     3     4   ar
    14     4     5   ar
    15     5     6   ar
    16     5     7   ar
    17     7     8   ar
    18     8     9   ar
    19     9    10    1
    20    10    11    1
    21    11    12    1
    22    12    13   am
    23    13    14    2
    24    25    21    1
    25     6     1   ar
    26    13     8    1
    27     9     4   ar
    28    12    15    1
@<TRIPOS>MOLECULE
*****
 25 28 0 0 0
SMALL
GASTEIGER

@<TRIPOS>ATOM
      1 C          61.6103   89.7019   10.5191 C.ar    1  UNL1        0.1386
      2 C          61.6755   89.3166   11.9673 C.ar    1  UNL1        0.0384
      3 C          62.7131   89.9295   12.8604 C.ar    1  UNL1        0.0203
      4 C          63.6855   90.9277   12.3054 C.ar    1  UNL1        0.0602
      5 C          63.6203   91.3129   10.8572 C.ar    1  UNL1        0.0204
      6 C          62.5827   90.7000    9.9640 C.ar    1  UNL1        0.0384
      7 C          64.7039   92.3166   10.5954 C.ar    1  UNL1        0.0233
      8 C          65.4387   92.5516   11.8817 C.ar    1  UNL1        0.1140
      9 N          64.8093   91.6932   12.9386 N.ar    1  UNL1       -0.3219
     10 C          65.3409   91.7196   14.3410 C.3     1  UNL1        0.1273
     11 C          66.5018   92.6044   14.6865 C.3     1  UNL1        0.1142
     12 N          67.1312   93.4628   13.6296 N.am    1  UNL1       -0.2978
     13 C          66.5996   93.4364   12.2272 C.2     1  UNL1        0.2618
     14 O          67.2290   94.2949   11.1703 O.2     1  UNL1       -0.2686
     15 H          67.8931   94.0435   13.8564 H       1  UNL1        0.1499
     16 O          60.5727   89.0890    9.6259 O.3     1  UNL1       -0.4754
     17 C          60.7880   87.7178    9.0571 C.3     1  UNL1        0.2068
     18 C          61.9697   86.9025    9.4919 C.3     1  UNL1        0.0646
     19 C          61.8372   85.9401   10.6349 C.3     1  UNL1        0.0759
     20 C          62.7558   84.4865   13.4084 C.3     1  UNL1        0.0173
     21 C          63.2030   84.1118   12.0265 C.3     1  UNL1        0.0576
     22 C          64.1510   83.0032   11.6769 C.3     1  UNL1        0.0174
     23 C          64.3147   82.9862   10.1859 C.3     1  UNL1        0.0187
     24 C          63.4678   84.0843    9.6141 C.3     1  UNL1        0.0721
     25 N          62.7808   84.7800   10.7517 N.3     1  UNL1       -0.2738
@<TRIPOS>BOND
     1    21    20    1
     2    21    22    1
     3    22    23    1
     4    23    24    1
     5    24    25    1
     6    25    19    1
     7    19    18    1
     8    18    17    1
     9    17    16    1
    10    16     1    1
    11     1     2   ar
    12     2     3   ar
    13     3     4   ar
    14     4     5   ar
    15     5     6   ar
    16     5     7   ar
    17     7     8   ar
    18     8     9   ar
    19     9    10    1
    20    10    11    1
    21    11    12    1
    22    12    13   am
    23    13    14    2
    24    25    21    1
    25     6     1   ar
    26    13     8    1
    27     9     4   ar
    28    12    15    1
@<TRIPOS>MOLECULE
*****
 25 28 0 0 0
SMALL
GASTEIGER

@<TRIPOS>ATOM
      1 C          61.2198   89.8777   10.7975 C.ar    1  UNL1        0.1386
      2 C          61.3586   89.5273   12.2494 C.ar    1  UNL1        0.0384
      3 C          62.5249   90.0453   13.0376 C.ar    1  UNL1        0.0203
      4 C          63.5524   90.9136   12.3741 C.ar    1  UNL1        0.0602
      5 C          63.4135   91.2640   10.9222 C.ar    1  UNL1        0.0204
      6 C          62.2472   90.7461   10.1340 C.ar    1  UNL1        0.0384
      7 C          64.5752   92.1335   10.5421 C.ar    1  UNL1        0.0233
      8 C          65.4321   92.3204   11.7590 C.ar    1  UNL1        0.1140
      9 N          64.8000   91.5665   12.8913 N.ar    1  UNL1       -0.3219
     10 C          65.4419   91.5719   14.2468 C.3     1  UNL1        0.1273
     11 C          66.7161   92.3313   14.4703 C.3     1  UNL1        0.1142
     12 N          67.3482   93.0852   13.3380 N.am    1  UNL1       -0.2978
     13 C          66.7062   93.0798   11.9824 C.2     1  UNL1        0.2618
     14 O          67.3384   93.8338   10.8501 O.2     1  UNL1       -0.2686
     15 H          68.1845   93.5836   13.4846 H       1  UNL1        0.1499
     16 O          60.0534   89.3598   10.0092 O.3     1  UNL1       -0.4754
     17 C          60.1538   89.2310    8.5181 C.3     1  UNL1        0.2068
     18 C          59.4023   88.1451    7.8068 C.3     1  UNL1        0.0646
     19 C          59.5574   86.7176    8.2406 C.3     1  UNL1        0.0759
     20 C          62.1195   86.4968   10.2496 C.3     1  UNL1        0.0173
     21 C          62.0132   85.8823    8.8854 C.3     1  UNL1        0.0576
     22 C          63.0660   85.0583    8.2052 C.3     1  UNL1        0.0174
     23 C          62.5390   84.6505    6.8613 C.3     1  UNL1        0.0187
     24 C          61.1605   85.2225    6.7110 C.3     1  UNL1        0.0721
     25 N          60.8356   85.9838    7.9620 N.3     1  UNL1       -0.2738
@<TRIPOS>BOND
     1    21    20    1
     2    21    22    1
     3    22    23    1
     4    23    24    1
     5    24    25    1
     6    25    19    1
     7    19    18    1
     8    18    17    1
     9    17    16    1
    10    16     1    1
    11     1     2   ar
    12     2     3   ar
    13     3     4   ar
    14     4     5   ar
    15     5     6   ar
    16     5     7   ar
    17     7     8   ar
    18     8     9   ar
    19     9    10    1
    20    10    11    1
    21    11    12    1
    22    12    13   am
    23    13    14    2
    24    25    21    1
    25     6     1   ar
    26    13     8    1
    27     9     4   ar
    28    12    15    1
@<TRIPOS>MOLECULE
*****
 25 28 0 0 0
SMALL
GASTEIGER

@<TRIPOS>ATOM
      1 C          63.7150   89.9540   13.3078 C.ar    1  UNL1        0.1386
      2 C          63.0252   89.5505   12.0385 C.ar    1  UNL1        0.0384
      3 C          62.7975   88.0988   11.7375 C.ar    1  UNL1        0.0203
      4 C          63.2597   87.0506   12.7058 C.ar    1  UNL1        0.0602
      5 C          63.9495   87.4541   13.9751 C.ar    1  UNL1        0.0204
      6 C          64.1772   88.9058   14.2761 C.ar    1  UNL1        0.0384
      7 C          64.2914   86.2060   14.7337 C.ar    1  UNL1        0.0233
      8 C          63.8129   85.0312   13.9332 C.ar    1  UNL1        0.1140
      9 N          63.1752   85.5531   12.6799 N.ar    1  UNL1       -0.3219
     10 C          62.6001   84.5975   11.6770 C.3     1  UNL1        0.1273
     11 C          62.6626   83.1199   11.9274 C.3     1  UNL1        0.1142
     12 N          63.3003   82.5979   13.1808 N.am    1  UNL1       -0.2978
     13 C          63.8755   83.5536   14.1837 C.2     1  UNL1        0.2618
     14 O          64.5131   83.0317   15.4372 O.2     1  UNL1       -0.2686
     15 H          63.3413   81.6281   13.3452 H       1  UNL1        0.1499
     16 O          63.9427   91.4058   13.6089 O.3     1  UNL1       -0.4754
     17 C          65.3041   92.0063   13.4200 C.3     1  UNL1        0.2068
     18 C          65.6360   92.7271   12.1470 C.3     1  UNL1        0.0646
     19 C          66.4335   93.9967   12.1900 C.3     1  UNL1        0.0759
     20 C          67.9389   92.5876    9.6607 C.3     1  UNL1        0.0173
     21 C          67.5258   94.0267    9.7506 C.3     1  UNL1        0.0576
     22 C          67.7322   95.0709    8.6936 C.3     1  UNL1        0.0174
     23 C          67.1677   96.3640    9.2030 C.3     1  UNL1        0.0187
     24 C          66.6125   96.1189   10.5747 C.3     1  UNL1        0.0721
     25 N          66.8339   94.6745   10.9132 N.3     1  UNL1       -0.2738
@<TRIPOS>BOND
     1    21    20    1
     2    21    22    1
     3    22    23    1
     4    23    24    1
     5    24    25    1
     6    25    19    1
     7    19    18    1
     8    18    17    1
     9    17    16    1
    10    16     1    1
    11     1     2   ar
    12     2     3   ar
    13     3     4   ar
    14     4     5   ar
    15     5     6   ar
    16     5     7   ar
    17     7     8   ar
    18     8     9   ar
    19     9    10    1
    20    10    11    1
    21    11    12    1
    22    12    13   am
    23    13    14    2
    24    25    21    1
    25     6     1   ar
    26    13     8    1
    27     9     4   ar
    28    12    15    1
@<TRIPOS>MOLECULE
*****
 25 28 0 0 0
SMALL
GASTEIGER

@<TRIPOS>ATOM
      1 C          63.4903   87.8353   13.0652 C.ar    1  UNL1        0.1386
      2 C          63.0642   89.2440   12.7751 C.ar    1  UNL1        0.0384
      3 C          62.1950   89.5352   11.5878 C.ar    1  UNL1        0.0203
      4 C          61.7520   88.4178   10.6906 C.ar    1  UNL1        0.0602
      5 C          62.1781   87.0092   10.9806 C.ar    1  UNL1        0.0204
      6 C          63.0472   86.7179   12.1679 C.ar    1  UNL1        0.0384
      7 C          61.5892   86.1203    9.9256 C.ar    1  UNL1        0.0233
      8 C          60.7991   86.9795    8.9835 C.ar    1  UNL1        0.1140
      9 N          60.8997   88.3995    9.4563 N.ar    1  UNL1       -0.3219
     10 C          60.2024   89.4923    8.7018 C.3     1  UNL1        0.1273
     11 C          59.4044   89.1652    7.4745 C.3     1  UNL1        0.1142
     12 N          59.3038   87.7452    7.0018 N.am    1  UNL1       -0.2978
     13 C          60.0012   86.6524    7.7563 C.2     1  UNL1        0.2618
     14 O          59.9006   85.2323    7.2835 O.2     1  UNL1       -0.2686
     15 H          58.7800   87.5305    6.1963 H       1  UNL1        0.1499
     16 O          64.3595   87.5441   14.2525 O.3     1  UNL1       -0.4754
     17 C          64.1212   86.3104   15.0718 C.3     1  UNL1        0.2068
     18 C          64.7401   85.0069   14.6622 C.3     1  UNL1        0.0646
     19 C          63.9000   83.7660   14.5952 C.3     1  UNL1        0.0759
     20 C          61.7834   81.3535   14.0047 C.3     1  UNL1        0.0173
     21 C          62.7444   81.9448   13.0165 C.3     1  UNL1        0.0576
     22 C          62.9013   81.5310   11.5832 C.3     1  UNL1        0.0174
     23 C          63.9712   82.3842   10.9688 C.3     1  UNL1        0.0187
     24 C          64.4755   83.3253   12.0224 C.3     1  UNL1        0.0721
     25 N          63.7174   83.0537   13.2879 N.3     1  UNL1       -0.2738
@<TRIPOS>BOND
     1    21    20    1
     2    21    22    1
     3    22    23    1
     4    23    24    1
     5    24    25    1
     6    25    19    1
     7    19    18    1
     8    18    17    1
     9    17    16    1
    10    16     1    1
    11     1     2   ar
    12     2     3   ar
    13     3     4   ar
    14     4     5   ar
    15     5     6   ar
    16     5     7   ar
    17     7     8   ar
    18     8     9   ar
    19     9    10    1
    20    10    11    1
    21    11    12    1
    22    12    13   am
    23    13    14    2
    24    25    21    1
    25     6     1   ar
    26    13     8    1
    27     9     4   ar
    28    12    15    1
@<TRIPOS>MOLECULE
*****
 25 28 0 0 0
SMALL
GASTEIGER

@<TRIPOS>ATOM
      1 C          63.4792   86.8527   16.1426 C.ar    1  UNL1        0.1386
      2 C          62.5660   85.8916   16.8442 C.ar    1  UNL1        0.0384
      3 C          62.2734   84.5532   16.2333 C.ar    1  UNL1        0.0203
      4 C          62.8940   84.1761   14.9208 C.ar    1  UNL1        0.0602
      5 C          63.8072   85.1372   14.2192 C.ar    1  UNL1        0.0204
      6 C          64.0998   86.4755   14.8301 C.ar    1  UNL1        0.0384
      7 C          64.2694   84.4922   12.9463 C.ar    1  UNL1        0.0233
      8 C          63.6419   83.1324   12.8612 C.ar    1  UNL1        0.1140
      9 N          62.7918   82.9370   14.0815 N.ar    1  UNL1       -0.3219
     10 C          62.0346   81.6561   14.2707 C.3     1  UNL1        0.1273
     11 C          62.1274   80.5706   13.2397 C.3     1  UNL1        0.1142
     12 N          62.9775   80.7660   12.0194 N.am    1  UNL1       -0.2978
     13 C          63.7347   82.0469   11.8301 C.2     1  UNL1        0.2618
     14 O          64.5849   82.2423   10.6098 O.2     1  UNL1       -0.2686
     15 H          63.0384   80.0536   11.3427 H       1  UNL1        0.1499
     16 O          63.7719   88.1911   16.7535 O.3     1  UNL1       -0.4754
     17 C          63.0032   89.4012   16.3122 C.3     1  UNL1        0.2068
     18 C          63.6942   90.4908   15.5470 C.3     1  UNL1        0.0646
     19 C          64.7631   90.1470   14.5525 C.3     1  UNL1        0.0759
     20 C          67.5877   91.7680   14.7611 C.3     1  UNL1        0.0173
     21 C          66.5538   91.9328   13.6869 C.3     1  UNL1        0.0576
     22 C          66.6368   92.8715   12.5199 C.3     1  UNL1        0.0174
     23 C          65.3897   92.7067   11.7027 C.3     1  UNL1        0.0187
     24 C          64.5361   91.6660   12.3647 C.3     1  UNL1        0.0721
     25 N          65.2555   91.1877   13.5910 N.3     1  UNL1       -0.2738
@<TRIPOS>BOND
     1    21    20    1
     2    21    22    1
     3    22    23    1
     4    23    24    1
     5    24    25    1
     6    25    19    1
     7    19    18    1
     8    18    17    1
     9    17    16    1
    10    16     1    1
    11     1     2   ar
    12     2     3   ar
    13     3     4   ar
    14     4     5   ar
    15     5     6   ar
    16     5     7   ar
    17     7     8   ar
    18     8     9   ar
    19     9    10    1
    20    10    11    1
    21    11    12    1
    22    12    13   am
    23    13    14    2
    24    25    21    1
    25     6     1   ar
    26    13     8    1
    27     9     4   ar
    28    12    15    1
@<TRIPOS>MOLECULE
*****
 25 28 0 0 0
SMALL
GASTEIGER

@<TRIPOS>ATOM
      1 C          62.7352   88.5603   11.9012 C.ar    1  UNL1        0.1386
      2 C          62.6826   89.3994   10.6589 C.ar    1  UNL1        0.0384
      3 C          63.4235   90.7023   10.6021 C.ar    1  UNL1        0.0203
      4 C          64.2170   91.1662   11.7875 C.ar    1  UNL1        0.0602
      5 C          64.2696   90.3272   13.0297 C.ar    1  UNL1        0.0204
      6 C          63.5286   89.0242   13.0866 C.ar    1  UNL1        0.0384
      7 C          65.1284   91.0381   14.0332 C.ar    1  UNL1        0.0233
      8 C          65.6066   92.3165   13.4112 C.ar    1  UNL1        0.1140
      9 N          65.0434   92.3958   12.0232 N.ar    1  UNL1       -0.3219
     10 C          65.3557   93.5771   11.1534 C.3     1  UNL1        0.1273
     11 C          66.2313   94.6794   11.6716 C.3     1  UNL1        0.1142
     12 N          66.7945   94.6001   13.0595 N.am    1  UNL1       -0.2978
     13 C          66.4821   93.4187   13.9294 C.2     1  UNL1        0.2618
     14 O          67.0454   93.3395   15.3174 O.2     1  UNL1       -0.2686
     15 H          67.3692   95.3236   13.3996 H       1  UNL1        0.1499
     16 O          61.9942   87.2573   11.9580 O.3     1  UNL1       -0.4754
     17 C          62.7493   85.9623   11.9069 C.3     1  UNL1        0.2068
     18 C          62.6877   85.1063   10.6766 C.3     1  UNL1        0.0646
     19 C          62.6402   85.7449    9.3202 C.3     1  UNL1        0.0759
     20 C          61.5150   84.7016    6.4401 C.3     1  UNL1        0.0173
     21 C          60.8025   85.6255    7.3828 C.3     1  UNL1        0.0576
     22 C          59.4476   86.2320    7.1672 C.3     1  UNL1        0.0174
     23 C          59.1275   87.0865    8.3578 C.3     1  UNL1        0.0187
     24 C          60.2845   87.0080    9.3092 C.3     1  UNL1        0.0721
     25 N          61.3197   86.1050    8.7066 N.3     1  UNL1       -0.2738
@<TRIPOS>BOND
     1    21    20    1
     2    21    22    1
     3    22    23    1
     4    23    24    1
     5    24    25    1
     6    25    19    1
     7    19    18    1
     8    18    17    1
     9    17    16    1
    10    16     1    1
    11     1     2   ar
    12     2     3   ar
    13     3     4   ar
    14     4     5   ar
    15     5     6   ar
    16     5     7   ar
    17     7     8   ar
    18     8     9   ar
    19     9    10    1
    20    10    11    1
    21    11    12    1
    22    12    13   am
    23    13    14    2
    24    25    21    1
    25     6     1   ar
    26    13     8    1
    27     9     4   ar
    28    12    15    1
@<TRIPOS>MOLECULE
*****
 25 28 0 0 0
SMALL
GASTEIGER

@<TRIPOS>ATOM
      1 C          63.4124   86.5189   16.1526 C.ar    1  UNL1        0.1386
      2 C          64.1708   86.9016   14.9164 C.ar    1  UNL1        0.0384
      3 C          64.2694   85.9402   13.7693 C.ar    1  UNL1        0.0203
      4 C          63.6097   84.5960   13.8584 C.ar    1  UNL1        0.0602
      5 C          62.8513   84.2133   15.0947 C.ar    1  UNL1        0.0204
      6 C          62.7527   85.1747   16.2418 C.ar    1  UNL1        0.0384
      7 C          62.3089   82.8290   14.8958 C.ar    1  UNL1        0.0233
      8 C          62.7320   82.3562   13.5366 C.ar    1  UNL1        0.1140
      9 N          63.5359   83.4483   12.8954 N.ar    1  UNL1       -0.3219
     10 C          64.0969   83.2565   11.5176 C.3     1  UNL1        0.1273
     11 C          63.8540   81.9727   10.7809 C.3     1  UNL1        0.1142
     12 N          63.0501   80.8806   11.4221 N.am    1  UNL1       -0.2978
     13 C          62.4891   81.0724   12.7999 C.2     1  UNL1        0.2618
     14 O          61.6851   79.9803   13.4411 O.2     1  UNL1       -0.2686
     15 H          62.8907   80.0380   10.9386 H       1  UNL1        0.1499
     16 O          63.3138   87.4803   17.2998 O.3     1  UNL1       -0.4754
     17 C          62.9846   88.9213   17.0445 C.3     1  UNL1        0.2068
     18 C          63.5522   89.6190   15.8440 C.3     1  UNL1        0.0646
     19 C          63.8594   91.0859   15.9046 C.3     1  UNL1        0.0759
     20 C          63.9911   91.0245   12.6445 C.3     1  UNL1        0.0173
     21 C          65.0161   91.6301   13.5571 C.3     1  UNL1        0.0576
     22 C          66.2815   92.3138   13.1314 C.3     1  UNL1        0.0174
     23 C          67.0031   92.7645   14.3668 C.3     1  UNL1        0.0187
     24 C          66.1835   92.3594   15.5560 C.3     1  UNL1        0.0721
     25 N          64.9555   91.6583   15.0556 N.3     1  UNL1       -0.2738
@<TRIPOS>BOND
     1    21    20    1
     2    21    22    1
     3    22    23    1
     4    23    24    1
     5    24    25    1
     6    25    19    1
     7    19    18    1
     8    18    17    1
     9    17    16    1
    10    16     1    1
    11     1     2   ar
    12     2     3   ar
    13     3     4   ar
    14     4     5   ar
    15     5     6   ar
    16     5     7   ar
    17     7     8   ar
    18     8     9   ar
    19     9    10    1
    20    10    11    1
    21    11    12    1
    22    12    13   am
    23    13    14    2
    24    25    21    1
    25     6     1   ar
    26    13     8    1
    27     9     4   ar
    28    12    15    1
