@<TRIPOS>MOLECULE
*****
 29 31 0 0 0
SMALL
GASTEIGER

@<TRIPOS>ATOM
      1 C          63.1552   84.7743   12.4370 C.3     1  UNL1        0.0503
      2 C          62.8309   83.3442   12.7529 C.ar    1  UNL1       -0.0220
      3 C          61.9735   83.0138   13.9386 C.ar    1  UNL1       -0.0043
      4 C          61.6493   81.5837   14.2544 C.ar    1  UNL1       -0.0003
      5 C          62.1824   80.4840   13.3845 C.ar    1  UNL1       -0.0003
      6 C          63.0398   80.8145   12.1989 C.ar    1  UNL1       -0.0046
      7 C          63.3640   82.2446   11.8831 C.ar    1  UNL1       -0.0255
      8 C          64.2213   82.5750   10.6975 C.3     1  UNL1        0.0307
      9 C          62.3239   85.5299   11.4431 C.ar    1  UNL1       -0.0181
     10 C          61.3466   86.5650   11.9157 C.ar    1  UNL1       -0.0039
     11 C          60.5152   87.3207   10.9217 C.ar    1  UNL1        0.0008
     12 C          60.6613   87.0413    9.4552 C.ar    1  UNL1        0.0140
     13 C          61.6386   86.0061    8.9827 C.ar    1  UNL1        0.0008
     14 C          62.4699   85.2505    9.9766 C.ar    1  UNL1       -0.0039
     15 C          59.8300   87.7969    8.4613 C.2     1  UNL1        0.0729
     16 O          60.1165   89.2441    8.1900 O.co2   1  UNL1       -0.5446
     17 O          58.7122   87.1054    7.7387 O.co2   1  UNL1       -0.5446
     18 C          64.3107   85.4487   13.1152 C.3     1  UNL1        0.0578
     19 C          64.1576   85.9753   14.5114 C.2     1  UNL1        0.0975
     20 N          64.2863   85.0460   15.6818 N.2     1  UNL1       -0.0908
     21 O          64.4298   84.2653   15.7559 O.2     1  UNL1       -0.4090
     22 H          64.4698   83.8751   16.6068 H       1  UNL1        0.3278
     23 C          63.7905   90.8244   12.6807 C.3     1  UNL1        0.0521
     24 C          63.6923   89.8558   13.8218 C.ar    1  UNL1        0.0594
     25 C          63.9740   88.3999   13.5961 C.ar    1  UNL1        0.0160
     26 C          63.8759   87.4312   14.7372 C.ar    1  UNL1        0.0194
     27 C          63.4959   87.9184   16.1040 C.ar    1  UNL1        0.0219
     28 C          63.2142   89.3743   16.3297 C.ar    1  UNL1        0.0985
     29 N          63.3123   90.3430   15.1886 N.ar    1  UNL1       -0.2481
@<TRIPOS>UNITY_ATOM_ATTR
16 1
charge -1
@<TRIPOS>BOND
     1    23    24    1
     2    24    25   ar
     3    25    26   ar
     4    26    19    1
     5    19    18    1
     6    18     1    1
     7     1     9    1
     8     9    10   ar
     9    10    11   ar
    10    11    12   ar
    11    12    15    1
    12    15    16   ar
    13    15    17   ar
    14    12    13   ar
    15    13    14   ar
    16     1     2    1
    17     2     3   ar
    18     3     4   ar
    19     4     5   ar
    20     5     6   ar
    21     6     7   ar
    22     7     8    1
    23    19    20    2
    24    20    21    1
    25    26    27   ar
    26    27    28   ar
    27    28    29   ar
    28    29    24   ar
    29    14     9   ar
    30     7     2   ar
    31    21    22    1
@<TRIPOS>MOLECULE
*****
 29 31 0 0 0
SMALL
GASTEIGER

@<TRIPOS>ATOM
      1 C          62.1870   87.2001   10.6875 C.3     1  UNL1        0.0503
      2 C          61.2612   86.8887    9.5492 C.ar    1  UNL1       -0.0220
      3 C          59.8600   87.4243    9.5541 C.ar    1  UNL1       -0.0043
      4 C          58.9341   87.1129    8.4158 C.ar    1  UNL1       -0.0003
      5 C          59.4094   86.2660    7.2726 C.ar    1  UNL1       -0.0003
      6 C          60.8105   85.7305    7.2677 C.ar    1  UNL1       -0.0046
      7 C          61.7364   86.0419    8.4060 C.ar    1  UNL1       -0.0255
      8 C          63.1375   85.5064    8.4012 C.3     1  UNL1        0.0307
      9 C          62.5803   86.1202   11.6514 C.ar    1  UNL1       -0.0181
     10 C          63.3469   86.4662   12.8934 C.ar    1  UNL1       -0.0039
     11 C          63.7401   85.3862   13.8573 C.ar    1  UNL1        0.0008
     12 C          63.3667   83.9603   13.5792 C.ar    1  UNL1        0.0140
     13 C          62.6001   83.6144   12.3372 C.ar    1  UNL1        0.0008
     14 C          62.2069   84.6943   11.3733 C.ar    1  UNL1       -0.0039
     15 C          63.7600   82.8804   14.5431 C.2     1  UNL1        0.0729
     16 O          63.3722   81.4567   14.2734 O.co2   1  UNL1       -0.5446
     17 O          64.5410   83.2242   15.7767 O.co2   1  UNL1       -0.5446
     18 C          62.7197   88.5915   10.8620 C.3     1  UNL1        0.0578
     19 C          62.2784   89.4226   12.0301 C.2     1  UNL1        0.0975
     20 N          60.8373   89.4259   12.4464 N.2     1  UNL1       -0.0908
     21 O          60.1820   89.0610   12.1764 O.2     1  UNL1       -0.4090
     22 H          59.3574   89.2077   12.5963 H       1  UNL1        0.3278
     23 C          65.8917   93.1563   12.0923 C.3     1  UNL1        0.0521
     24 C          65.0848   92.1173   12.8130 C.ar    1  UNL1        0.0594
     25 C          64.0851   91.2894   12.0612 C.ar    1  UNL1        0.0160
     26 C          63.2782   90.2504   12.7819 C.ar    1  UNL1        0.0194
     27 C          63.4710   90.0393   14.2544 C.ar    1  UNL1        0.0219
     28 C          64.4707   90.8671   15.0061 C.ar    1  UNL1        0.0985
     29 N          65.2776   91.9061   14.2855 N.ar    1  UNL1       -0.2481
@<TRIPOS>UNITY_ATOM_ATTR
16 1
charge -1
@<TRIPOS>BOND
     1    23    24    1
     2    24    25   ar
     3    25    26   ar
     4    26    19    1
     5    19    18    1
     6    18     1    1
     7     1     9    1
     8     9    10   ar
     9    10    11   ar
    10    11    12   ar
    11    12    15    1
    12    15    16   ar
    13    15    17   ar
    14    12    13   ar
    15    13    14   ar
    16     1     2    1
    17     2     3   ar
    18     3     4   ar
    19     4     5   ar
    20     5     6   ar
    21     6     7   ar
    22     7     8    1
    23    19    20    2
    24    20    21    1
    25    26    27   ar
    26    27    28   ar
    27    28    29   ar
    28    29    24   ar
    29    14     9   ar
    30     7     2   ar
    31    21    22    1
@<TRIPOS>MOLECULE
*****
 29 31 0 0 0
SMALL
GASTEIGER

@<TRIPOS>ATOM
      1 C          62.2511   87.2054   10.2548 C.3     1  UNL1        0.0503
      2 C          61.9635   86.3908    9.0285 C.ar    1  UNL1       -0.0220
      3 C          63.0530   85.5756    8.3971 C.ar    1  UNL1       -0.0043
      4 C          62.7653   84.7610    7.1708 C.ar    1  UNL1       -0.0003
      5 C          61.3883   84.7616    6.5760 C.ar    1  UNL1       -0.0003
      6 C          60.2989   85.5768    7.2074 C.ar    1  UNL1       -0.0046
      7 C          60.5865   86.3913    8.4337 C.ar    1  UNL1       -0.0255
      8 C          59.4971   87.2065    9.0651 C.3     1  UNL1        0.0307
      9 C          62.6416   86.5244   11.5330 C.ar    1  UNL1       -0.0181
     10 C          62.1945   85.1178   11.8003 C.ar    1  UNL1       -0.0039
     11 C          62.5850   84.4368   13.0785 C.ar    1  UNL1        0.0008
     12 C          63.4225   85.1624   14.0894 C.ar    1  UNL1        0.0140
     13 C          63.8697   86.5691   13.8220 C.ar    1  UNL1        0.0008
     14 C          63.4792   87.2501   12.5438 C.ar    1  UNL1       -0.0039
     15 C          63.8130   84.4815   15.3676 C.2     1  UNL1        0.0729
     16 O          64.0646   83.0028   15.3831 O.co2   1  UNL1       -0.5446
     17 O          63.9519   85.2792   16.6302 O.co2   1  UNL1       -0.5446
     18 C          62.1482   88.7010   10.2028 C.3     1  UNL1        0.0578
     19 C          61.9219   89.4814   11.4636 C.2     1  UNL1        0.0975
     20 N          60.6204   89.3577   12.1989 N.2     1  UNL1       -0.0908
     21 O          59.9524   88.9402   12.0761 O.2     1  UNL1       -0.4090
     22 H          59.2377   89.0122   12.6776 H       1  UNL1        0.3278
     23 C          65.5937   93.0630   10.6327 C.3     1  UNL1        0.0521
     24 C          64.8331   92.1765   11.5737 C.ar    1  UNL1        0.0594
     25 C          63.7579   91.2722   11.0482 C.ar    1  UNL1        0.0160
     26 C          62.9972   90.3857   11.9892 C.ar    1  UNL1        0.0194
     27 C          63.3118   90.4034   13.4557 C.ar    1  UNL1        0.0219
     28 C          64.3870   91.3076   13.9812 C.ar    1  UNL1        0.0985
     29 N          65.1477   92.1941   13.0402 N.ar    1  UNL1       -0.2481
@<TRIPOS>UNITY_ATOM_ATTR
16 1
charge -1
@<TRIPOS>BOND
     1    23    24    1
     2    24    25   ar
     3    25    26   ar
     4    26    19    1
     5    19    18    1
     6    18     1    1
     7     1     9    1
     8     9    10   ar
     9    10    11   ar
    10    11    12   ar
    11    12    15    1
    12    15    16   ar
    13    15    17   ar
    14    12    13   ar
    15    13    14   ar
    16     1     2    1
    17     2     3   ar
    18     3     4   ar
    19     4     5   ar
    20     5     6   ar
    21     6     7   ar
    22     7     8    1
    23    19    20    2
    24    20    21    1
    25    26    27   ar
    26    27    28   ar
    27    28    29   ar
    28    29    24   ar
    29    14     9   ar
    30     7     2   ar
    31    21    22    1
@<TRIPOS>MOLECULE
*****
 29 31 0 0 0
SMALL
GASTEIGER

@<TRIPOS>ATOM
      1 C          64.6240   91.0038   14.2328 C.3     1  UNL1        0.0503
      2 C          65.9536   91.6151   14.5620 C.ar    1  UNL1       -0.0220
      3 C          67.1049   91.4623   13.6126 C.ar    1  UNL1       -0.0043
      4 C          68.4346   92.0736   13.9417 C.ar    1  UNL1       -0.0003
      5 C          68.6129   92.8378   15.2202 C.ar    1  UNL1       -0.0003
      6 C          67.4616   92.9905   16.1695 C.ar    1  UNL1       -0.0046
      7 C          66.1320   92.3792   15.8403 C.ar    1  UNL1       -0.0255
      8 C          64.9807   92.5320   16.7896 C.3     1  UNL1        0.0307
      9 C          64.2060   89.7204   14.8870 C.ar    1  UNL1       -0.0181
     10 C          63.3655   89.7507   16.1290 C.ar    1  UNL1       -0.0039
     11 C          62.9475   88.4672   16.7833 C.ar    1  UNL1        0.0008
     12 C          63.3701   87.1534   16.1955 C.ar    1  UNL1        0.0140
     13 C          64.2106   87.1232   14.9534 C.ar    1  UNL1        0.0008
     14 C          64.6286   88.4066   14.2992 C.ar    1  UNL1       -0.0039
     15 C          62.9521   85.8700   16.8497 C.2     1  UNL1        0.0729
     16 O          63.2276   84.5594   16.1741 O.co2   1  UNL1       -0.5446
     17 O          62.2588   85.8971   18.1795 O.co2   1  UNL1       -0.5446
     18 C          63.7122   91.6760   13.2494 C.3     1  UNL1        0.0578
     19 C          63.6326   91.1760   11.8375 C.2     1  UNL1        0.0975
     20 N          64.5963   91.6840   10.8064 N.2     1  UNL1       -0.0908
     21 O          65.2000   92.2045   10.8214 O.2     1  UNL1       -0.4090
     22 H          65.6861   92.3808   10.0400 H       1  UNL1        0.3278
     23 C          62.1661   86.2286   11.2272 C.3     1  UNL1        0.0521
     24 C          61.8559   87.6942   11.1515 C.ar    1  UNL1        0.0594
     25 C          62.8993   88.7023   11.5323 C.ar    1  UNL1        0.0160
     26 C          62.5891   90.1679   11.4566 C.ar    1  UNL1        0.0194
     27 C          61.2356   90.6255   11.0000 C.ar    1  UNL1        0.0219
     28 C          60.1922   89.6174   10.6191 C.ar    1  UNL1        0.0985
     29 N          60.5024   88.1518   10.6949 N.ar    1  UNL1       -0.2481
@<TRIPOS>UNITY_ATOM_ATTR
16 1
charge -1
@<TRIPOS>BOND
     1    23    24    1
     2    24    25   ar
     3    25    26   ar
     4    26    19    1
     5    19    18    1
     6    18     1    1
     7     1     9    1
     8     9    10   ar
     9    10    11   ar
    10    11    12   ar
    11    12    15    1
    12    15    16   ar
    13    15    17   ar
    14    12    13   ar
    15    13    14   ar
    16     1     2    1
    17     2     3   ar
    18     3     4   ar
    19     4     5   ar
    20     5     6   ar
    21     6     7   ar
    22     7     8    1
    23    19    20    2
    24    20    21    1
    25    26    27   ar
    26    27    28   ar
    27    28    29   ar
    28    29    24   ar
    29    14     9   ar
    30     7     2   ar
    31    21    22    1
@<TRIPOS>MOLECULE
*****
 29 31 0 0 0
SMALL
GASTEIGER

@<TRIPOS>ATOM
      1 C          64.8632   91.1287   14.1668 C.3     1  UNL1        0.0503
      2 C          66.1867   91.7134   14.5625 C.ar    1  UNL1       -0.0220
      3 C          67.3814   91.5351   13.6731 C.ar    1  UNL1       -0.0043
      4 C          68.7048   92.1197   14.0688 C.ar    1  UNL1       -0.0003
      5 C          68.8336   92.8826   15.3540 C.ar    1  UNL1       -0.0003
      6 C          67.6390   93.0609   16.2433 C.ar    1  UNL1       -0.0046
      7 C          66.3155   92.4762   15.8476 C.ar    1  UNL1       -0.0255
      8 C          65.1208   92.6544   16.7369 C.3     1  UNL1        0.0307
      9 C          64.3852   89.8566   14.8018 C.ar    1  UNL1       -0.0181
     10 C          63.5716   89.9065   16.0609 C.ar    1  UNL1       -0.0039
     11 C          63.0936   88.6344   16.6960 C.ar    1  UNL1        0.0008
     12 C          63.4293   87.3123   16.0719 C.ar    1  UNL1        0.0140
     13 C          64.2430   87.2625   14.8127 C.ar    1  UNL1        0.0008
     14 C          64.7210   88.5346   14.1777 C.ar    1  UNL1       -0.0039
     15 C          62.9514   86.0402   16.7069 C.2     1  UNL1        0.0729
     16 O          63.3539   84.7160   16.1286 O.co2   1  UNL1       -0.5446
     17 O          62.0709   86.0924   17.9201 O.co2   1  UNL1       -0.5446
     18 C          64.0176   91.8162   13.1360 C.3     1  UNL1        0.0578
     19 C          64.4029   91.7549   11.6877 C.2     1  UNL1        0.0975
     20 N          63.7009   90.8036   10.7645 N.2     1  UNL1       -0.0908
     21 O          63.1168   90.2695   10.8593 O.2     1  UNL1       -0.4090
     22 H          62.8198   89.7652   10.1275 H       1  UNL1        0.3278
     23 C          68.6921   92.4127    8.8294 C.3     1  UNL1        0.0521
     24 C          67.6347   92.9738    9.7333 C.ar    1  UNL1        0.0594
     25 C          66.5475   92.0839   10.2585 C.ar    1  UNL1        0.0160
     26 C          65.4901   92.6450   11.1624 C.ar    1  UNL1        0.0194
     27 C          65.5199   94.0961   11.5411 C.ar    1  UNL1        0.0219
     28 C          66.6071   94.9860   11.0158 C.ar    1  UNL1        0.0985
     29 N          67.6645   94.4249   10.1119 N.ar    1  UNL1       -0.2481
@<TRIPOS>UNITY_ATOM_ATTR
16 1
charge -1
@<TRIPOS>BOND
     1    23    24    1
     2    24    25   ar
     3    25    26   ar
     4    26    19    1
     5    19    18    1
     6    18     1    1
     7     1     9    1
     8     9    10   ar
     9    10    11   ar
    10    11    12   ar
    11    12    15    1
    12    15    16   ar
    13    15    17   ar
    14    12    13   ar
    15    13    14   ar
    16     1     2    1
    17     2     3   ar
    18     3     4   ar
    19     4     5   ar
    20     5     6   ar
    21     6     7   ar
    22     7     8    1
    23    19    20    2
    24    20    21    1
    25    26    27   ar
    26    27    28   ar
    27    28    29   ar
    28    29    24   ar
    29    14     9   ar
    30     7     2   ar
    31    21    22    1
@<TRIPOS>MOLECULE
*****
 29 31 0 0 0
SMALL
GASTEIGER

@<TRIPOS>ATOM
      1 C          64.5819   90.9494   13.3915 C.3     1  UNL1        0.0503
      2 C          65.7062   91.5475   14.1842 C.ar    1  UNL1       -0.0220
      3 C          67.0632   91.7003   13.5634 C.ar    1  UNL1       -0.0043
      4 C          68.1875   92.2983   14.3561 C.ar    1  UNL1       -0.0003
      5 C          67.9548   92.7435   15.7695 C.ar    1  UNL1       -0.0003
      6 C          66.5978   92.5907   16.3902 C.ar    1  UNL1       -0.0046
      7 C          65.4735   91.9927   15.5976 C.ar    1  UNL1       -0.0255
      8 C          64.1166   91.8398   16.2183 C.3     1  UNL1        0.0307
      9 C          64.2860   89.4829   13.4985 C.ar    1  UNL1       -0.0181
     10 C          63.4704   88.8031   12.4389 C.ar    1  UNL1       -0.0039
     11 C          63.1744   87.3365   12.5458 C.ar    1  UNL1        0.0008
     12 C          63.6941   86.5496   13.7124 C.ar    1  UNL1        0.0140
     13 C          64.5097   87.2294   14.7720 C.ar    1  UNL1        0.0008
     14 C          64.8056   88.6960   14.6651 C.ar    1  UNL1       -0.0039
     15 C          63.3981   85.0830   13.8194 C.2     1  UNL1        0.0729
     16 O          64.4170   84.0776   13.3710 O.co2   1  UNL1       -0.5446
     17 O          62.0833   84.6218   14.3747 O.co2   1  UNL1       -0.5446
     18 C          63.7535   91.8181   12.4919 C.3     1  UNL1        0.0578
     19 C          64.1494   92.0048   11.0572 C.2     1  UNL1        0.0975
     20 N          63.3104   91.4116    9.9644 N.2     1  UNL1       -0.0908
     21 O          62.6408   90.9793    9.9530 O.2     1  UNL1       -0.4090
     22 H          62.2746   90.7041    9.1356 H       1  UNL1        0.3278
     23 C          66.6635   96.5415   10.7441 C.3     1  UNL1        0.0521
     24 C          66.6413   95.0532   10.5588 C.ar    1  UNL1        0.0594
     25 C          65.4065   94.2732   10.9007 C.ar    1  UNL1        0.0160
     26 C          65.3842   92.7848   10.7153 C.ar    1  UNL1        0.0194
     27 C          66.5967   92.0765   10.1880 C.ar    1  UNL1        0.0219
     28 C          67.8315   92.8565    9.8462 C.ar    1  UNL1        0.0985
     29 N          67.8538   94.3448   10.0315 N.ar    1  UNL1       -0.2481
@<TRIPOS>UNITY_ATOM_ATTR
16 1
charge -1
@<TRIPOS>BOND
     1    23    24    1
     2    24    25   ar
     3    25    26   ar
     4    26    19    1
     5    19    18    1
     6    18     1    1
     7     1     9    1
     8     9    10   ar
     9    10    11   ar
    10    11    12   ar
    11    12    15    1
    12    15    16   ar
    13    15    17   ar
    14    12    13   ar
    15    13    14   ar
    16     1     2    1
    17     2     3   ar
    18     3     4   ar
    19     4     5   ar
    20     5     6   ar
    21     6     7   ar
    22     7     8    1
    23    19    20    2
    24    20    21    1
    25    26    27   ar
    26    27    28   ar
    27    28    29   ar
    28    29    24   ar
    29    14     9   ar
    30     7     2   ar
    31    21    22    1
@<TRIPOS>MOLECULE
*****
 29 31 0 0 0
SMALL
GASTEIGER

@<TRIPOS>ATOM
      1 C          63.4864   89.5566   13.2399 C.3     1  UNL1        0.0503
      2 C          64.4328   90.5367   13.8673 C.ar    1  UNL1       -0.0220
      3 C          65.5393   91.1379   13.0522 C.ar    1  UNL1       -0.0043
      4 C          66.4857   92.1181   13.6796 C.ar    1  UNL1       -0.0003
      5 C          66.3257   92.4970   15.1221 C.ar    1  UNL1       -0.0003
      6 C          65.2193   91.8958   15.9372 C.ar    1  UNL1       -0.0046
      7 C          64.2729   90.9157   15.3098 C.ar    1  UNL1       -0.0255
      8 C          63.1665   90.3145   16.1249 C.3     1  UNL1        0.0307
      9 C          63.6787   88.0848   13.4561 C.ar    1  UNL1       -0.0181
     10 C          64.4916   87.5974   14.6186 C.ar    1  UNL1       -0.0039
     11 C          64.6839   86.1255   14.8348 C.ar    1  UNL1        0.0008
     12 C          64.0632   85.1411   13.8884 C.ar    1  UNL1        0.0140
     13 C          63.2503   85.6285   12.7259 C.ar    1  UNL1        0.0008
     14 C          63.0580   87.1003   12.5097 C.ar    1  UNL1       -0.0039
     15 C          64.2555   83.6693   14.1046 C.2     1  UNL1        0.0729
     16 O          64.1766   83.0980   15.4893 O.co2   1  UNL1       -0.5446
     17 O          64.5267   82.7688   12.9361 O.co2   1  UNL1       -0.5446
     18 C          62.3477   90.0483   12.3963 C.3     1  UNL1        0.0578
     19 C          62.4859   90.0951   10.9035 C.2     1  UNL1        0.0975
     20 N          63.2867   91.1871   10.2582 N.2     1  UNL1       -0.0908
     21 O          63.6981   91.8106   10.5366 O.2     1  UNL1       -0.4090
     22 H          64.1378   92.3853    9.9413 H       1  UNL1        0.3278
     23 C          62.6320   85.4853    8.5102 C.3     1  UNL1        0.0521
     24 C          61.8963   86.7450    8.8591 C.ar    1  UNL1        0.0594
     25 C          62.5589   87.7902    9.7068 C.ar    1  UNL1        0.0160
     26 C          61.8232   89.0500   10.0558 C.ar    1  UNL1        0.0194
     27 C          60.4250   89.2646    9.5571 C.ar    1  UNL1        0.0219
     28 C          59.7624   88.2194    8.7094 C.ar    1  UNL1        0.0985
     29 N          60.4981   86.9597    8.3604 N.ar    1  UNL1       -0.2481
@<TRIPOS>UNITY_ATOM_ATTR
16 1
charge -1
@<TRIPOS>BOND
     1    23    24    1
     2    24    25   ar
     3    25    26   ar
     4    26    19    1
     5    19    18    1
     6    18     1    1
     7     1     9    1
     8     9    10   ar
     9    10    11   ar
    10    11    12   ar
    11    12    15    1
    12    15    16   ar
    13    15    17   ar
    14    12    13   ar
    15    13    14   ar
    16     1     2    1
    17     2     3   ar
    18     3     4   ar
    19     4     5   ar
    20     5     6   ar
    21     6     7   ar
    22     7     8    1
    23    19    20    2
    24    20    21    1
    25    26    27   ar
    26    27    28   ar
    27    28    29   ar
    28    29    24   ar
    29    14     9   ar
    30     7     2   ar
    31    21    22    1
@<TRIPOS>MOLECULE
*****
 29 31 0 0 0
SMALL
GASTEIGER

@<TRIPOS>ATOM
      1 C          63.5086   85.4894   12.9168 C.3     1  UNL1        0.0503
      2 C          63.2466   84.0143   12.8424 C.ar    1  UNL1       -0.0220
      3 C          63.8991   83.1897   11.7726 C.ar    1  UNL1       -0.0043
      4 C          63.6372   81.7146   11.6983 C.ar    1  UNL1       -0.0003
      5 C          62.7228   81.0641   12.6937 C.ar    1  UNL1       -0.0003
      6 C          62.0704   81.8887   13.7634 C.ar    1  UNL1       -0.0046
      7 C          62.3323   83.3638   13.8378 C.ar    1  UNL1       -0.0255
      8 C          61.6799   84.1884   14.9075 C.3     1  UNL1        0.0307
      9 C          62.6942   86.4384   12.0885 C.ar    1  UNL1       -0.0181
     10 C          63.0540   87.8939   12.0443 C.ar    1  UNL1       -0.0039
     11 C          62.2396   88.8430   11.2160 C.ar    1  UNL1        0.0008
     12 C          61.0655   88.3365   10.4319 C.ar    1  UNL1        0.0140
     13 C          60.7057   86.8809   10.4761 C.ar    1  UNL1        0.0008
     14 C          61.5201   85.9319   11.3044 C.ar    1  UNL1       -0.0039
     15 C          60.2511   89.2855    9.6036 C.2     1  UNL1        0.0729
     16 O          59.9221   88.9462    8.1800 O.co2   1  UNL1       -0.5446
     17 O          59.7657   90.5739   10.1989 O.co2   1  UNL1       -0.5446
     18 C          64.5849   86.0154   13.8195 C.3     1  UNL1        0.0578
     19 C          64.2279   86.5794   15.1628 C.2     1  UNL1        0.0975
     20 N          64.0872   85.6678   16.3457 N.2     1  UNL1       -0.0908
     21 O          64.1618   84.8810   16.4505 O.2     1  UNL1       -0.4090
     22 H          64.0265   84.5065   17.2986 H       1  UNL1        0.3278
     23 C          64.8817   91.4371   13.4380 C.3     1  UNL1        0.0521
     24 C          64.3385   90.4839   14.4608 C.ar    1  UNL1        0.0594
     25 C          64.5548   89.0083   14.3004 C.ar    1  UNL1        0.0160
     26 C          64.0116   88.0551   15.3233 C.ar    1  UNL1        0.0194
     27 C          63.2521   88.5774   16.5066 C.ar    1  UNL1        0.0219
     28 C          63.0357   90.0530   16.6670 C.ar    1  UNL1        0.0985
     29 N          63.5790   91.0062   15.6441 N.ar    1  UNL1       -0.2481
@<TRIPOS>UNITY_ATOM_ATTR
16 1
charge -1
@<TRIPOS>BOND
     1    23    24    1
     2    24    25   ar
     3    25    26   ar
     4    26    19    1
     5    19    18    1
     6    18     1    1
     7     1     9    1
     8     9    10   ar
     9    10    11   ar
    10    11    12   ar
    11    12    15    1
    12    15    16   ar
    13    15    17   ar
    14    12    13   ar
    15    13    14   ar
    16     1     2    1
    17     2     3   ar
    18     3     4   ar
    19     4     5   ar
    20     5     6   ar
    21     6     7   ar
    22     7     8    1
    23    19    20    2
    24    20    21    1
    25    26    27   ar
    26    27    28   ar
    27    28    29   ar
    28    29    24   ar
    29    14     9   ar
    30     7     2   ar
    31    21    22    1
@<TRIPOS>MOLECULE
*****
 29 31 0 0 0
SMALL
GASTEIGER

@<TRIPOS>ATOM
      1 C          64.0991   90.1246   14.2697 C.3     1  UNL1        0.0503
      2 C          63.9749   88.7652   14.8915 C.ar    1  UNL1       -0.0220
      3 C          64.4658   87.5551   14.1534 C.ar    1  UNL1       -0.0043
      4 C          64.3416   86.1957   14.7752 C.ar    1  UNL1       -0.0003
      5 C          63.7265   86.0464   16.1352 C.ar    1  UNL1       -0.0003
      6 C          63.2356   87.2565   16.8732 C.ar    1  UNL1       -0.0046
      7 C          63.3598   88.6159   16.2514 C.ar    1  UNL1       -0.0255
      8 C          62.8689   89.8259   16.9895 C.3     1  UNL1        0.0307
      9 C          65.2876   90.9854   14.5798 C.ar    1  UNL1       -0.0181
     10 C          66.4984   90.9390   13.6956 C.ar    1  UNL1       -0.0039
     11 C          67.6870   91.7999   14.0057 C.ar    1  UNL1        0.0008
     12 C          67.6648   92.7072   15.2001 C.ar    1  UNL1        0.0140
     13 C          66.4539   92.7535   16.0843 C.ar    1  UNL1        0.0008
     14 C          65.2654   91.8927   15.7741 C.ar    1  UNL1       -0.0039
     15 C          68.8534   93.5680   15.5102 C.2     1  UNL1        0.0729
     16 O          68.7288   94.6916   16.4961 O.co2   1  UNL1       -0.5446
     17 O          70.1664   93.3053   14.8344 O.co2   1  UNL1       -0.5446
     18 C          63.0346   90.6231   13.3377 C.3     1  UNL1        0.0578
     19 C          63.2092   90.4803   11.8548 C.2     1  UNL1        0.0975
     20 N          64.1236   91.4107   11.1142 N.2     1  UNL1       -0.0908
     21 O          64.5859   92.0225   11.3320 O.2     1  UNL1       -0.4090
     22 H          65.0908   92.4803   10.6889 H       1  UNL1        0.3278
     23 C          62.0735   85.4585   11.1533 C.3     1  UNL1        0.0521
     24 C          61.9016   86.8963   10.7616 C.ar    1  UNL1        0.0594
     25 C          62.6413   87.9694   11.5040 C.ar    1  UNL1        0.0160
     26 C          62.4695   89.4071   11.1124 C.ar    1  UNL1        0.0194
     27 C          61.5579   89.7717    9.9783 C.ar    1  UNL1        0.0219
     28 C          60.8182   88.6986    9.2360 C.ar    1  UNL1        0.0985
     29 N          60.9900   87.2609    9.6276 N.ar    1  UNL1       -0.2481
@<TRIPOS>UNITY_ATOM_ATTR
16 1
charge -1
@<TRIPOS>BOND
     1    23    24    1
     2    24    25   ar
     3    25    26   ar
     4    26    19    1
     5    19    18    1
     6    18     1    1
     7     1     9    1
     8     9    10   ar
     9    10    11   ar
    10    11    12   ar
    11    12    15    1
    12    15    16   ar
    13    15    17   ar
    14    12    13   ar
    15    13    14   ar
    16     1     2    1
    17     2     3   ar
    18     3     4   ar
    19     4     5   ar
    20     5     6   ar
    21     6     7   ar
    22     7     8    1
    23    19    20    2
    24    20    21    1
    25    26    27   ar
    26    27    28   ar
    27    28    29   ar
    28    29    24   ar
    29    14     9   ar
    30     7     2   ar
    31    21    22    1
