@<TRIPOS>MOLECULE
*****
 23 24 0 0 0
SMALL
GASTEIGER

@<TRIPOS>ATOM
      1 N          62.0952   85.9191   10.9110 N.ar    1  UNL1       -0.2918
      2 C          61.4315   86.1783    9.5910 C.ar    1  UNL1        0.1798
      3 N          61.4887   87.6534    9.3252 N.ar    1  UNL1       -0.2195
      4 C          62.1878   88.3060   10.4809 C.ar    1  UNL1        0.1481
      5 C          62.5314   89.7376   10.7674 C.ar    1  UNL1        0.1480
      6 N          62.1566   90.8095    9.7873 N.pl3   1  UNL1       -0.3413
      7 N          63.2499   90.0974   12.0340 N.ar    1  UNL1       -0.2078
      8 C          63.6248   89.0255   13.0140 C.ar    1  UNL1        0.2015
      9 N          63.2811   87.5938   12.7275 N.ar    1  UNL1       -0.2048
     10 C          62.5626   87.2341   11.4609 C.ar    1  UNL1        0.1674
     11 H          61.6850   90.5734    8.9560 H       1  UNL1        0.1438
     12 H          62.3821   91.7492    9.9754 H       1  UNL1        0.1438
     13 C          62.2623   84.5801   11.5660 C.3     1  UNL1        0.1384
     14 C          64.2742   83.1233   10.8041 C.3     1  UNL1        0.0342
     15 C          63.6367   84.0321   11.8129 C.3     1  UNL1        0.1387
     16 O          64.3735   84.3930   13.0686 O.3     1  UNL1       -0.3426
     17 C          64.0399   83.7038   14.3584 C.3     1  UNL1        0.2577
     18 P          63.0411   84.3123   15.2976 P.3     1  UNL1        0.3665
     19 O          62.0424   84.9209   16.2368 O.2     1  UNL1       -0.2556
     20 O          62.5601   82.9423   15.6738 O.3     1  UNL1       -0.3220
     21 O          63.5222   85.6824   14.9214 O.3     1  UNL1       -0.3220
     22 H          61.8475   83.0180   16.3275 H       1  UNL1        0.2198
     23 H          63.0170   86.3487   15.4130 H       1  UNL1        0.2198
@<TRIPOS>BOND
     1    15    14    1
     2    15    13    1
     3    13     1    1
     4     1     2   ar
     5     2     3   ar
     6     3     4   ar
     7     4     5   ar
     8     5     6    1
     9     5     7   ar
    10     7     8   ar
    11     8     9   ar
    12     9    10   ar
    13    15    16    1
    14    16    17    1
    15    17    18    1
    16    18    19    2
    17    18    20    1
    18    18    21    1
    19    10     1   ar
    20    10     4   ar
    21     6    11    1
    22     6    12    1
    23    20    22    1
    24    21    23    1
@<TRIPOS>MOLECULE
*****
 23 24 0 0 0
SMALL
GASTEIGER

@<TRIPOS>ATOM
      1 N          66.9349   92.9575   12.5399 N.ar    1  UNL1       -0.2918
      2 C          66.0255   94.1426   12.6762 C.ar    1  UNL1        0.1798
      3 N          65.9767   94.8442   11.3513 N.ar    1  UNL1       -0.2195
      4 C          66.8560   94.0927   10.3962 C.ar    1  UNL1        0.1481
      5 C          67.1939   94.3196    8.9525 C.ar    1  UNL1        0.1480
      6 N          66.6017   95.4856    8.2178 N.pl3   1  UNL1       -0.3413
      7 N          68.1241   93.3804    8.2434 N.ar    1  UNL1       -0.2078
      8 C          68.7163   92.2144    8.9781 C.ar    1  UNL1        0.2015
      9 N          68.3783   91.9875   10.4218 N.ar    1  UNL1       -0.2048
     10 C          67.4482   92.9267   11.1308 C.ar    1  UNL1        0.1674
     11 H          65.9912   96.1020    8.6832 H       1  UNL1        0.1438
     12 H          66.8235   95.6345    7.2703 H       1  UNL1        0.1438
     13 C          67.2719   91.9757   13.6227 C.3     1  UNL1        0.1384
     14 C          67.7044   92.6796   16.0860 C.3     1  UNL1        0.0342
     15 C          66.7682   92.1960   15.0184 C.3     1  UNL1        0.1387
     16 O          65.3284   91.9329   15.3464 O.3     1  UNL1       -0.3426
     17 C          64.6149   90.7743   14.7150 C.3     1  UNL1        0.2577
     18 P          63.4996   90.0902   15.4486 P.3     1  UNL1        0.3665
     19 O          62.3844   89.4061   16.1822 O.2     1  UNL1       -0.2556
     20 O          63.4828   89.0061   14.4120 O.3     1  UNL1       -0.3220
     21 O          63.5165   91.1743   16.4851 O.3     1  UNL1       -0.3220
     22 H          62.7992   88.3554   14.6359 H       1  UNL1        0.2198
     23 H          62.8401   90.9909   17.1558 H       1  UNL1        0.2198
@<TRIPOS>BOND
     1    15    14    1
     2    15    13    1
     3    13     1    1
     4     1     2   ar
     5     2     3   ar
     6     3     4   ar
     7     4     5   ar
     8     5     6    1
     9     5     7   ar
    10     7     8   ar
    11     8     9   ar
    12     9    10   ar
    13    15    16    1
    14    16    17    1
    15    17    18    1
    16    18    19    2
    17    18    20    1
    18    18    21    1
    19    10     1   ar
    20    10     4   ar
    21     6    11    1
    22     6    12    1
    23    20    22    1
    24    21    23    1
@<TRIPOS>MOLECULE
*****
 23 24 0 0 0
SMALL
GASTEIGER

@<TRIPOS>ATOM
      1 N          63.6243   89.5505   12.9462 N.ar    1  UNL1       -0.2918
      2 C          63.4379   90.9502   12.4403 C.ar    1  UNL1        0.1798
      3 N          62.5428   90.8931   11.2380 N.ar    1  UNL1       -0.2195
      4 C          62.1761   89.4581   11.0008 C.ar    1  UNL1        0.1481
      5 C          61.3199   88.7998    9.9599 C.ar    1  UNL1        0.1480
      6 N          60.6515   89.6296    8.9041 N.pl3   1  UNL1       -0.3413
      7 N          61.1321   87.3117    9.9748 N.ar    1  UNL1       -0.2078
      8 C          61.8005   86.4819   11.0306 C.ar    1  UNL1        0.2015
      9 N          62.6567   87.1402   12.0715 N.ar    1  UNL1       -0.2048
     10 C          62.8445   88.6283   12.0566 C.ar    1  UNL1        0.1674
     11 H          60.7748   90.6063    8.8944 H       1  UNL1        0.1438
     12 H          60.0895   89.1975    8.2209 H       1  UNL1        0.1438
     13 C          64.4463   89.1442   14.1334 C.3     1  UNL1        0.1384
     14 C          63.1767   89.4779   16.3755 C.3     1  UNL1        0.0342
     15 C          63.7781   88.5674   15.3463 C.3     1  UNL1        0.1387
     16 O          63.7114   87.0802   15.5299 O.3     1  UNL1       -0.3426
     17 C          64.7634   86.2013   14.9209 C.3     1  UNL1        0.2577
     18 P          64.4103   84.8186   14.4589 P.3     1  UNL1        0.3665
     19 O          64.0573   83.4359   13.9970 O.2     1  UNL1       -0.2556
     20 O          62.9592   85.1974   14.4344 O.3     1  UNL1       -0.3220
     21 O          65.8615   84.4399   14.4835 O.3     1  UNL1       -0.3220
     22 H          62.4311   84.4360   14.1474 H       1  UNL1        0.2198
     23 H          65.9591   83.5152   14.2071 H       1  UNL1        0.2198
@<TRIPOS>BOND
     1    15    14    1
     2    15    13    1
     3    13     1    1
     4     1     2   ar
     5     2     3   ar
     6     3     4   ar
     7     4     5   ar
     8     5     6    1
     9     5     7   ar
    10     7     8   ar
    11     8     9   ar
    12     9    10   ar
    13    15    16    1
    14    16    17    1
    15    17    18    1
    16    18    19    2
    17    18    20    1
    18    18    21    1
    19    10     1   ar
    20    10     4   ar
    21     6    11    1
    22     6    12    1
    23    20    22    1
    24    21    23    1
@<TRIPOS>MOLECULE
*****
 23 24 0 0 0
SMALL
GASTEIGER

@<TRIPOS>ATOM
      1 N          63.8500   90.6516   14.1715 N.ar    1  UNL1       -0.2918
      2 C          63.1774   90.2161   12.9034 C.ar    1  UNL1        0.1798
      3 N          63.7372   91.0338   11.7774 N.ar    1  UNL1       -0.2195
      4 C          64.7558   91.9747   12.3495 C.ar    1  UNL1        0.1481
      5 C          65.6288   93.0160   11.7143 C.ar    1  UNL1        0.1480
      6 N          65.5590   93.2522   10.2347 N.pl3   1  UNL1       -0.3413
      7 N          66.5715   93.8211   12.5588 N.ar    1  UNL1       -0.2078
      8 C          66.6412   93.5848   14.0384 C.ar    1  UNL1        0.2015
      9 N          65.7682   92.5435   14.6736 N.ar    1  UNL1       -0.2048
     10 C          64.8255   91.7384   13.8292 C.ar    1  UNL1        0.1674
     11 H          64.9403   92.7238    9.6805 H       1  UNL1        0.1438
     12 H          66.1320   93.9357    9.8178 H       1  UNL1        0.1438
     13 C          63.5924   90.0975   15.5414 C.3     1  UNL1        0.1384
     14 C          63.0467   88.0447   17.0376 C.3     1  UNL1        0.0342
     15 C          63.5964   88.6139   15.7633 C.3     1  UNL1        0.1387
     16 O          64.1501   87.6996   14.7110 O.3     1  UNL1       -0.3426
     17 C          64.5727   86.3070   15.0741 C.3     1  UNL1        0.2577
     18 P          64.0045   85.1334   14.3327 P.3     1  UNL1        0.3665
     19 O          63.4363   83.9597   13.5912 O.2     1  UNL1       -0.2556
     20 O          63.4328   86.0613   13.3021 O.3     1  UNL1       -0.3220
     21 O          64.5762   84.2055   15.3633 O.3     1  UNL1       -0.3220
     22 H          62.9632   85.5457   12.6278 H       1  UNL1        0.2198
     23 H          64.3530   83.2899   15.1334 H       1  UNL1        0.2198
@<TRIPOS>BOND
     1    15    14    1
     2    15    13    1
     3    13     1    1
     4     1     2   ar
     5     2     3   ar
     6     3     4   ar
     7     4     5   ar
     8     5     6    1
     9     5     7   ar
    10     7     8   ar
    11     8     9   ar
    12     9    10   ar
    13    15    16    1
    14    16    17    1
    15    17    18    1
    16    18    19    2
    17    18    20    1
    18    18    21    1
    19    10     1   ar
    20    10     4   ar
    21     6    11    1
    22     6    12    1
    23    20    22    1
    24    21    23    1
@<TRIPOS>MOLECULE
*****
 23 24 0 0 0
SMALL
GASTEIGER

@<TRIPOS>ATOM
      1 N          64.6425   90.8706   13.5848 N.ar    1  UNL1       -0.2918
      2 C          64.6189   89.6641   14.4757 C.ar    1  UNL1        0.1798
      3 N          63.7942   88.6072   13.8028 N.ar    1  UNL1       -0.2195
      4 C          63.3080   89.1605   12.4961 C.ar    1  UNL1        0.1481
      5 C          62.4557   88.5713   11.4116 C.ar    1  UNL1        0.1480
      6 N          61.9314   87.1724   11.5463 N.pl3   1  UNL1       -0.3413
      7 N          62.1277   89.3810   10.1923 N.ar    1  UNL1       -0.2078
      8 C          62.6519   90.7799   10.0575 C.ar    1  UNL1        0.2015
      9 N          63.5043   91.3691   11.1421 N.ar    1  UNL1       -0.2048
     10 C          63.8323   90.5594   12.3614 C.ar    1  UNL1        0.1674
     11 H          62.1467   86.6409   12.3466 H       1  UNL1        0.1438
     12 H          61.3720   86.7856   10.8345 H       1  UNL1        0.1438
     13 C          65.3517   92.1618   13.8677 C.3     1  UNL1        0.1384
     14 C          67.7391   91.7271   14.7960 C.3     1  UNL1        0.0342
     15 C          66.8413   92.2487   13.7135 C.3     1  UNL1        0.1387
     16 O          67.4330   92.8572   12.4767 O.3     1  UNL1       -0.3426
     17 C          66.8178   92.5812   11.1368 C.3     1  UNL1        0.2577
     18 P          66.7643   93.6627   10.0989 P.3     1  UNL1        0.3665
     19 O          66.7108   94.7442    9.0609 O.2     1  UNL1       -0.2556
     20 O          68.2625   93.6678   10.0270 O.3     1  UNL1       -0.3220
     21 O          65.2660   93.6576   10.1708 O.3     1  UNL1       -0.3220
     22 H          68.5529   94.3283    9.3786 H       1  UNL1        0.2198
     23 H          64.9104   94.3159    9.5534 H       1  UNL1        0.2198
@<TRIPOS>BOND
     1    15    14    1
     2    15    13    1
     3    13     1    1
     4     1     2   ar
     5     2     3   ar
     6     3     4   ar
     7     4     5   ar
     8     5     6    1
     9     5     7   ar
    10     7     8   ar
    11     8     9   ar
    12     9    10   ar
    13    15    16    1
    14    16    17    1
    15    17    18    1
    16    18    19    2
    17    18    20    1
    18    18    21    1
    19    10     1   ar
    20    10     4   ar
    21     6    11    1
    22     6    12    1
    23    20    22    1
    24    21    23    1
@<TRIPOS>MOLECULE
*****
 23 24 0 0 0
SMALL
GASTEIGER

@<TRIPOS>ATOM
      1 N          63.1665   89.5380   12.3140 N.ar    1  UNL1       -0.2918
      2 C          63.0374   90.8881   11.6735 C.ar    1  UNL1        0.1798
      3 N          62.1318   90.7528   10.4854 N.ar    1  UNL1       -0.2195
      4 C          61.7013   89.3189   10.3916 C.ar    1  UNL1        0.1481
      5 C          60.8095   88.6000    9.4232 C.ar    1  UNL1        0.1480
      6 N          60.1700   89.3508    8.2930 N.pl3   1  UNL1       -0.3413
      7 N          60.5574   87.1303    9.5849 N.ar    1  UNL1       -0.2078
      8 C          61.1969   86.3795   10.7151 C.ar    1  UNL1        0.2015
      9 N          62.0886   87.0984   11.6835 N.ar    1  UNL1       -0.2048
     10 C          62.3408   88.5681   11.5218 C.ar    1  UNL1        0.1674
     11 H          60.3356   90.3155    8.1869 H       1  UNL1        0.1438
     12 H          59.5848   88.8789    7.6574 H       1  UNL1        0.1438
     13 C          63.9788   89.2144   13.5328 C.3     1  UNL1        0.1384
     14 C          63.3758   89.6374   16.0244 C.3     1  UNL1        0.0342
     15 C          63.9406   90.1260   14.7235 C.3     1  UNL1        0.1387
     16 O          64.4670   91.5263   14.6131 O.3     1  UNL1       -0.3426
     17 C          65.6355   91.9563   15.4495 C.3     1  UNL1        0.2577
     18 P          66.8514   92.5420   14.7948 P.3     1  UNL1        0.3665
     19 O          68.0673   93.1276   14.1401 O.2     1  UNL1       -0.2556
     20 O          67.5857   91.2508   15.0035 O.3     1  UNL1       -0.3220
     21 O          66.1171   93.8332   14.5862 O.3     1  UNL1       -0.3220
     22 H          68.4853   91.3295   14.6493 H       1  UNL1        0.2198
     23 H          66.7001   94.4686   14.1420 H       1  UNL1        0.2198
@<TRIPOS>BOND
     1    15    14    1
     2    15    13    1
     3    13     1    1
     4     1     2   ar
     5     2     3   ar
     6     3     4   ar
     7     4     5   ar
     8     5     6    1
     9     5     7   ar
    10     7     8   ar
    11     8     9   ar
    12     9    10   ar
    13    15    16    1
    14    16    17    1
    15    17    18    1
    16    18    19    2
    17    18    20    1
    18    18    21    1
    19    10     1   ar
    20    10     4   ar
    21     6    11    1
    22     6    12    1
    23    20    22    1
    24    21    23    1
@<TRIPOS>MOLECULE
*****
 23 24 0 0 0
SMALL
GASTEIGER

@<TRIPOS>ATOM
      1 N          62.7653   85.0989   11.6042 N.ar    1  UNL1       -0.2918
      2 C          63.0994   84.0323   10.6039 C.ar    1  UNL1        0.1798
      3 N          63.3360   82.7536   11.3515 N.ar    1  UNL1       -0.2195
      4 C          63.1481   83.0299   12.8138 C.ar    1  UNL1        0.1481
      5 C          63.2525   82.1489   14.0233 C.ar    1  UNL1        0.1480
      6 N          63.6052   80.6993   13.8671 N.pl3   1  UNL1       -0.3413
      7 N          63.0043   82.7174   15.3890 N.ar    1  UNL1       -0.2078
      8 C          62.6516   84.1670   15.5451 C.ar    1  UNL1        0.2015
      9 N          62.5471   85.0480   14.3357 N.ar    1  UNL1       -0.2048
     10 C          62.7953   84.4794   12.9700 C.ar    1  UNL1        0.1674
     11 H          63.7682   80.3262   12.9708 H       1  UNL1        0.1438
     12 H          63.6738   80.1211   14.6609 H       1  UNL1        0.1438
     13 C          62.4555   86.5333   11.2933 C.3     1  UNL1        0.1384
     14 C          60.6862   86.4784    9.3915 C.3     1  UNL1        0.0342
     15 C          61.1030   86.9112   10.7659 C.3     1  UNL1        0.1387
     16 O          60.1674   87.7219   11.6129 O.3     1  UNL1       -0.3426
     17 C          59.9642   89.1792   11.3218 C.3     1  UNL1        0.2577
     18 P          61.1477   90.0939   11.2100 P.3     1  UNL1        0.3665
     19 O          62.3313   91.0086   11.0982 O.2     1  UNL1       -0.2556
     20 O          60.8627   90.2841    9.7497 O.3     1  UNL1       -0.3220
     21 O          61.4327   89.9037   12.6703 O.3     1  UNL1       -0.3220
     22 H          61.5229   90.8828    9.3667 H       1  UNL1        0.2198
     23 H          62.2157   90.4204   12.9169 H       1  UNL1        0.2198
@<TRIPOS>BOND
     1    15    14    1
     2    15    13    1
     3    13     1    1
     4     1     2   ar
     5     2     3   ar
     6     3     4   ar
     7     4     5   ar
     8     5     6    1
     9     5     7   ar
    10     7     8   ar
    11     8     9   ar
    12     9    10   ar
    13    15    16    1
    14    16    17    1
    15    17    18    1
    16    18    19    2
    17    18    20    1
    18    18    21    1
    19    10     1   ar
    20    10     4   ar
    21     6    11    1
    22     6    12    1
    23    20    22    1
    24    21    23    1
@<TRIPOS>MOLECULE
*****
 23 24 0 0 0
SMALL
GASTEIGER

@<TRIPOS>ATOM
      1 N          63.0794   90.4643   11.4499 N.ar    1  UNL1       -0.2918
      2 C          63.5254   91.2625   10.2608 C.ar    1  UNL1        0.1798
      3 N          64.5847   92.2214   10.7172 N.ar    1  UNL1       -0.2195
      4 C          64.7934   92.0159   12.1883 C.ar    1  UNL1        0.1481
      5 C          65.7104   92.6773   13.1740 C.ar    1  UNL1        0.1480
      6 N          66.6408   93.7633   12.7212 N.pl3   1  UNL1       -0.3413
      7 N          65.6970   92.2527   14.6126 N.ar    1  UNL1       -0.2078
      8 C          64.7666   91.1667   15.0654 C.ar    1  UNL1        0.2015
      9 N          63.8497   90.5053   14.0797 N.ar    1  UNL1       -0.2048
     10 C          63.8631   90.9299   12.6411 C.ar    1  UNL1        0.1674
     11 H          66.6495   94.0419   11.7770 H       1  UNL1        0.1438
     12 H          67.2426   94.1974   13.3681 H       1  UNL1        0.1438
     13 C          62.0334   89.3892   11.4481 C.3     1  UNL1        0.1384
     14 C          59.6883   90.4394   11.0630 C.3     1  UNL1        0.0342
     15 C          60.8011   89.5431   10.6065 C.3     1  UNL1        0.1387
     16 O          60.6818   88.8007    9.3086 O.3     1  UNL1       -0.3426
     17 C          59.6010   87.7766    9.1270 C.3     1  UNL1        0.2577
     18 P          59.7908   86.6500    8.1550 P.3     1  UNL1        0.3665
     19 O          59.9807   85.5234    7.1831 O.2     1  UNL1       -0.2556
     20 O          61.2440   86.5798    8.5203 O.3     1  UNL1       -0.3220
     21 O          58.3377   86.7203    7.7897 O.3     1  UNL1       -0.3220
     22 H          61.6729   85.8777    8.0065 H       1  UNL1        0.2198
     23 H          58.1402   86.0485    7.1184 H       1  UNL1        0.2198
@<TRIPOS>BOND
     1    15    14    1
     2    15    13    1
     3    13     1    1
     4     1     2   ar
     5     2     3   ar
     6     3     4   ar
     7     4     5   ar
     8     5     6    1
     9     5     7   ar
    10     7     8   ar
    11     8     9   ar
    12     9    10   ar
    13    15    16    1
    14    16    17    1
    15    17    18    1
    16    18    19    2
    17    18    20    1
    18    18    21    1
    19    10     1   ar
    20    10     4   ar
    21     6    11    1
    22     6    12    1
    23    20    22    1
    24    21    23    1
@<TRIPOS>MOLECULE
*****
 23 24 0 0 0
SMALL
GASTEIGER

@<TRIPOS>ATOM
      1 N          62.6024   85.3284   11.6040 N.ar    1  UNL1       -0.2918
      2 C          63.1261   86.3758   12.5414 C.ar    1  UNL1        0.1798
      3 N          63.6425   85.6837   13.7679 N.ar    1  UNL1       -0.2195
      4 C          63.4380   84.2086   13.5886 C.ar    1  UNL1        0.1481
      5 C          63.7540   83.0370   14.4703 C.ar    1  UNL1        0.1480
      6 N          64.3968   83.2566   15.8076 N.pl3   1  UNL1       -0.3413
      7 N          63.4273   81.6458   14.0145 N.ar    1  UNL1       -0.2078
      8 C          62.7845   81.4262   12.6772 C.ar    1  UNL1        0.2015
      9 N          62.4684   82.5978   11.7955 N.ar    1  UNL1       -0.2048
     10 C          62.7952   83.9890   12.2512 C.ar    1  UNL1        0.1674
     11 H          64.6113   84.1697   16.1067 H       1  UNL1        0.1438
     12 H          64.6043   82.4876   16.3863 H       1  UNL1        0.1438
     13 C          61.9930   85.5768   10.2561 C.3     1  UNL1        0.1384
     14 C          60.1233   86.6791    8.8280 C.3     1  UNL1        0.0342
     15 C          60.9190   86.6120   10.0978 C.3     1  UNL1        0.1387
     16 O          60.6409   87.5802   11.2092 O.3     1  UNL1       -0.3426
     17 C          61.0232   89.0230   11.0603 C.3     1  UNL1        0.2577
     18 P          59.9990   90.0968   11.2796 P.3     1  UNL1        0.3665
     19 O          58.9749   91.1706   11.4988 O.2     1  UNL1       -0.2556
     20 O          59.9326   89.7364   12.7341 O.3     1  UNL1       -0.3220
     21 O          60.0655   90.4571    9.8250 O.3     1  UNL1       -0.3220
     22 H          59.2939   90.3134   13.1813 H       1  UNL1        0.2198
     23 H          59.4554   91.1895    9.6451 H       1  UNL1        0.2198
@<TRIPOS>BOND
     1    15    14    1
     2    15    13    1
     3    13     1    1
     4     1     2   ar
     5     2     3   ar
     6     3     4   ar
     7     4     5   ar
     8     5     6    1
     9     5     7   ar
    10     7     8   ar
    11     8     9   ar
    12     9    10   ar
    13    15    16    1
    14    16    17    1
    15    17    18    1
    16    18    19    2
    17    18    20    1
    18    18    21    1
    19    10     1   ar
    20    10     4   ar
    21     6    11    1
    22     6    12    1
    23    20    22    1
    24    21    23    1
