@<TRIPOS>MOLECULE
*****
 26 28 0 0 0
SMALL
GASTEIGER

@<TRIPOS>ATOM
      1 N          63.4343   89.4258   13.0287 N.ar    1  UNL1       -0.3032
      2 C          64.0093   88.6596   14.1830 C.ar    1  UNL1        0.1788
      3 N          63.8370   87.1967   13.9001 N.ar    1  UNL1       -0.2238
      4 C          63.1556   87.0586   12.5710 C.ar    1  UNL1        0.1031
      5 C          62.7295   85.8565   11.7816 C.ar    1  UNL1        0.0724
      6 C          62.0546   86.0320   10.4536 C.ar    1  UNL1        0.0061
      7 C          61.8057   87.4097    9.9150 C.ar    1  UNL1        0.0017
      8 C          62.2317   88.6118   10.7045 C.ar    1  UNL1        0.0188
      9 C          62.9067   88.4363   12.0324 C.ar    1  UNL1        0.0794
     10 C          62.9784   84.4788   12.3201 C.2     1  UNL1        0.2474
     11 O          63.4023   83.3770   11.3948 O.2     1  UNL1       -0.2701
     12 N          62.8035   84.2029   13.7841 N.am    1  UNL1       -0.2982
     13 H          62.5252   84.9260   14.3915 H       1  UNL1        0.1498
     14 C          63.0524   82.8252   14.3226 C.3     1  UNL1        0.1280
     15 C          61.9948   81.7687   14.1977 C.3     1  UNL1        0.2144
     16 F          61.9153   80.9303   12.9564 F       1  UNL1       -0.2324
     17 C          63.3940   90.9192   12.8943 C.3     1  UNL1        0.1532
     18 C          66.5645   93.1703   12.0999 C.ar    1  UNL1        0.2234
     19 N          67.1480   93.3324   13.4723 N.ar    1  UNL1       -0.1896
     20 C          66.4802   92.6902   14.6519 C.ar    1  UNL1        0.2012
     21 N          65.2289   91.8857   14.4593 N.ar    1  UNL1       -0.2265
     22 C          64.6454   91.7236   13.0870 C.ar    1  UNL1        0.0841
     23 C          65.3132   92.3659   11.9074 C.ar    1  UNL1        0.0468
     24 C          64.7296   92.2038   10.5351 C.3     1  UNL1        0.0372
     25 C          66.8489   95.2025   10.5064 C.3     1  UNL1        0.2542
     26 O          67.2322   93.8126   10.9203 O.3     1  UNL1       -0.4563
@<TRIPOS>BOND
     1    25    26    1
     2    26    18    1
     3    18    19   ar
     4    19    20   ar
     5    20    21   ar
     6    21    22   ar
     7    22    17    1
     8    17     1    1
     9     1     2   ar
    10     2     3   ar
    11     3     4   ar
    12     4     5   ar
    13     5    10    1
    14    10    11    2
    15    10    12   am
    16    12    14    1
    17    14    15    1
    18    15    16    1
    19     5     6   ar
    20     6     7   ar
    21     7     8   ar
    22     8     9   ar
    23    22    23   ar
    24    23    24    1
    25    23    18   ar
    26     9     1   ar
    27     9     4   ar
    28    12    13    1
@<TRIPOS>MOLECULE
*****
 26 28 0 0 0
SMALL
GASTEIGER

@<TRIPOS>ATOM
      1 N          63.4325   89.4635   12.9019 N.ar    1  UNL1       -0.3032
      2 C          64.0202   88.7013   14.0523 C.ar    1  UNL1        0.1788
      3 N          63.8278   87.2378   13.7853 N.ar    1  UNL1       -0.2238
      4 C          63.1212   87.0956   12.4698 C.ar    1  UNL1        0.1031
      5 C          62.6687   85.8913   11.6986 C.ar    1  UNL1        0.0724
      6 C          61.9718   86.0625   10.3814 C.ar    1  UNL1        0.0061
      7 C          61.7275   87.4381    9.8354 C.ar    1  UNL1        0.0017
      8 C          62.1800   88.6424   10.6066 C.ar    1  UNL1        0.0188
      9 C          62.8769   88.4712   11.9238 C.ar    1  UNL1        0.0794
     10 C          62.9130   84.5157   12.2446 C.2     1  UNL1        0.2474
     11 O          63.2654   83.3918   11.3158 O.2     1  UNL1       -0.2701
     12 N          62.8050   84.2640   13.7193 N.am    1  UNL1       -0.2982
     13 H          62.5737   85.0017   14.3289 H       1  UNL1        0.1498
     14 C          63.0493   82.8885   14.2653 C.3     1  UNL1        0.1280
     15 C          61.9387   81.8802   14.2826 C.3     1  UNL1        0.2144
     16 F          61.5027   81.2229   13.0068 F       1  UNL1       -0.2324
     17 C          63.4052   90.9561   12.7552 C.3     1  UNL1        0.1532
     18 C          66.8533   92.8656   13.2187 C.ar    1  UNL1        0.2234
     19 N          67.1902   93.1921   11.7940 N.ar    1  UNL1       -0.1896
     20 C          66.2656   92.7733   10.6897 C.ar    1  UNL1        0.2012
     21 N          65.0039   92.0279   11.0100 N.ar    1  UNL1       -0.2265
     22 C          64.6669   91.7014   12.4347 C.ar    1  UNL1        0.0841
     23 C          65.5916   92.1203   13.5391 C.ar    1  UNL1        0.0468
     24 C          65.2545   91.7937   14.9638 C.3     1  UNL1        0.0372
     25 C          68.8422   92.3447   14.8070 C.3     1  UNL1        0.2542
     26 O          67.7780   93.2844   14.3231 O.3     1  UNL1       -0.4563
@<TRIPOS>BOND
     1    25    26    1
     2    26    18    1
     3    18    19   ar
     4    19    20   ar
     5    20    21   ar
     6    21    22   ar
     7    22    17    1
     8    17     1    1
     9     1     2   ar
    10     2     3   ar
    11     3     4   ar
    12     4     5   ar
    13     5    10    1
    14    10    11    2
    15    10    12   am
    16    12    14    1
    17    14    15    1
    18    15    16    1
    19     5     6   ar
    20     6     7   ar
    21     7     8   ar
    22     8     9   ar
    23    22    23   ar
    24    23    24    1
    25    23    18   ar
    26     9     1   ar
    27     9     4   ar
    28    12    13    1
@<TRIPOS>MOLECULE
*****
 26 28 0 0 0
SMALL
GASTEIGER

@<TRIPOS>ATOM
      1 N          62.5715   89.7500   11.2070 N.ar    1  UNL1       -0.3032
      2 C          62.7845   90.7877   10.1450 C.ar    1  UNL1        0.1788
      3 N          63.8203   91.7527   10.6411 N.ar    1  UNL1       -0.2238
      4 C          64.2474   91.3114   12.0096 C.ar    1  UNL1        0.1031
      5 C          65.2394   91.8766   12.9824 C.ar    1  UNL1        0.0724
      6 C          65.4595   91.2042   14.3050 C.ar    1  UNL1        0.0061
      7 C          64.6877   89.9664   14.6547 C.ar    1  UNL1        0.0017
      8 C          63.6958   89.4012   13.6819 C.ar    1  UNL1        0.0188
      9 C          63.4756   90.0736   12.3593 C.ar    1  UNL1        0.0794
     10 C          66.0112   93.1144   12.6326 C.2     1  UNL1        0.2474
     11 O          67.2028   93.5118   13.4523 O.2     1  UNL1       -0.2701
     12 N          65.5913   93.9546   11.4632 N.am    1  UNL1       -0.2982
     13 H          64.8092   93.6937   10.9252 H       1  UNL1        0.1498
     14 C          66.3631   95.1923   11.1134 C.3     1  UNL1        0.1280
     15 C          66.9158   95.3656    9.7297 C.3     1  UNL1        0.2144
     16 F          68.2371   94.7547    9.3678 F       1  UNL1       -0.2324
     17 C          61.6212   88.5920   11.1301 C.3     1  UNL1        0.1532
     18 C          60.3962   86.5477    7.9567 C.ar    1  UNL1        0.2234
     19 N          59.6002   87.5945    7.2351 N.ar    1  UNL1       -0.1896
     20 C          59.4779   88.9738    7.8119 C.ar    1  UNL1        0.2012
     21 N          60.1516   89.3063    9.1101 N.ar    1  UNL1       -0.2265
     22 C          60.9475   88.2595    9.8317 C.ar    1  UNL1        0.0841
     23 C          61.0698   86.8802    9.2550 C.ar    1  UNL1        0.0468
     24 C          61.8658   85.8335    9.9766 C.3     1  UNL1        0.0372
     25 C          61.7218   84.8010    6.5633 C.3     1  UNL1        0.2542
     26 O          60.5185   85.1684    7.3799 O.3     1  UNL1       -0.4563
@<TRIPOS>BOND
     1    25    26    1
     2    26    18    1
     3    18    19   ar
     4    19    20   ar
     5    20    21   ar
     6    21    22   ar
     7    22    17    1
     8    17     1    1
     9     1     2   ar
    10     2     3   ar
    11     3     4   ar
    12     4     5   ar
    13     5    10    1
    14    10    11    2
    15    10    12   am
    16    12    14    1
    17    14    15    1
    18    15    16    1
    19     5     6   ar
    20     6     7   ar
    21     7     8   ar
    22     8     9   ar
    23    22    23   ar
    24    23    24    1
    25    23    18   ar
    26     9     1   ar
    27     9     4   ar
    28    12    13    1
@<TRIPOS>MOLECULE
*****
 26 28 0 0 0
SMALL
GASTEIGER

@<TRIPOS>ATOM
      1 N          63.2103   89.4582   12.6214 N.ar    1  UNL1       -0.3032
      2 C          62.4593   88.9705   11.4180 C.ar    1  UNL1        0.1788
      3 N          62.4469   87.4710   11.4558 N.ar    1  UNL1       -0.2238
      4 C          63.1901   87.0321   12.6825 C.ar    1  UNL1        0.1031
      5 C          63.4982   85.6727   13.2367 C.ar    1  UNL1        0.0724
      6 C          64.2781   85.5415   14.5112 C.ar    1  UNL1        0.0061
      7 C          64.7499   86.7697   15.2316 C.ar    1  UNL1        0.0017
      8 C          64.4418   88.1291   14.6775 C.ar    1  UNL1        0.0188
      9 C          63.6619   88.2602   13.4029 C.ar    1  UNL1        0.0794
     10 C          63.0264   84.4445   12.5163 C.2     1  UNL1        0.2474
     11 O          62.6635   84.5204   11.0629 O.2     1  UNL1       -0.2701
     12 N          62.9176   83.1404   13.2493 N.am    1  UNL1       -0.2982
     13 H          63.1558   83.0905   14.2032 H       1  UNL1        0.1498
     14 C          62.4458   81.9122   12.5289 C.3     1  UNL1        0.1280
     15 C          61.9987   80.7109   13.3081 C.3     1  UNL1        0.2144
     16 F          60.6960   80.7412   14.0510 F       1  UNL1       -0.2324
     17 C          63.4648   90.8923   12.9803 C.3     1  UNL1        0.1532
     18 C          66.8523   92.6147   11.8362 C.ar    1  UNL1        0.2234
     19 N          67.6770   92.4727   13.0811 N.ar    1  UNL1       -0.1896
     20 C          67.0977   91.8040   14.2923 C.ar    1  UNL1        0.2012
     21 N          65.6937   91.2772   14.2588 N.ar    1  UNL1       -0.2265
     22 C          64.8690   91.4191   13.0139 C.ar    1  UNL1        0.0841
     23 C          65.4483   92.0879   11.8027 C.ar    1  UNL1        0.0468
     24 C          64.6235   92.2298   10.5578 C.3     1  UNL1        0.0372
     25 C          68.2511   92.4906    9.6504 C.3     1  UNL1        0.2542
     26 O          67.4316   93.2834   10.6250 O.3     1  UNL1       -0.4563
@<TRIPOS>BOND
     1    25    26    1
     2    26    18    1
     3    18    19   ar
     4    19    20   ar
     5    20    21   ar
     6    21    22   ar
     7    22    17    1
     8    17     1    1
     9     1     2   ar
    10     2     3   ar
    11     3     4   ar
    12     4     5   ar
    13     5    10    1
    14    10    11    2
    15    10    12   am
    16    12    14    1
    17    14    15    1
    18    15    16    1
    19     5     6   ar
    20     6     7   ar
    21     7     8   ar
    22     8     9   ar
    23    22    23   ar
    24    23    24    1
    25    23    18   ar
    26     9     1   ar
    27     9     4   ar
    28    12    13    1
@<TRIPOS>MOLECULE
*****
 26 28 0 0 0
SMALL
GASTEIGER

@<TRIPOS>ATOM
      1 N          63.0938   89.4090   12.4605 N.ar    1  UNL1       -0.3032
      2 C          62.3635   88.8582   11.2716 C.ar    1  UNL1        0.1788
      3 N          62.4076   87.3611   11.3534 N.ar    1  UNL1       -0.2238
      4 C          63.1651   86.9866   12.5928 C.ar    1  UNL1        0.1031
      5 C          63.5235   85.6567   13.1867 C.ar    1  UNL1        0.0724
      6 C          64.3060   85.5925   14.4648 C.ar    1  UNL1        0.0061
      7 C          64.7300   86.8582   15.1490 C.ar    1  UNL1        0.0017
      8 C          64.3716   88.1881   14.5551 C.ar    1  UNL1        0.0188
      9 C          63.5892   88.2523   13.2770 C.ar    1  UNL1        0.0794
     10 C          63.0995   84.3910   12.5025 C.2     1  UNL1        0.2474
     11 O          63.0006   84.3439   11.0065 O.2     1  UNL1       -0.2701
     12 N          62.7743   83.1723   13.3143 N.am    1  UNL1       -0.2982
     13 H          62.8392   83.2031   14.2961 H       1  UNL1        0.1498
     14 C          62.3502   81.9065   12.6301 C.3     1  UNL1        0.1280
     15 C          61.8560   80.7451   13.4406 C.3     1  UNL1        0.2144
     16 F          60.7508   80.9412   14.4357 F       1  UNL1       -0.2324
     17 C          63.2935   90.8615   12.7772 C.3     1  UNL1        0.1532
     18 C          66.9341   92.4116   13.0836 C.ar    1  UNL1        0.2234
     19 N          67.1562   92.8930   11.6804 N.ar    1  UNL1       -0.1896
     20 C          66.0908   92.6972   10.6429 C.ar    1  UNL1        0.2012
     21 N          64.8033   92.0201   11.0084 N.ar    1  UNL1       -0.2265
     22 C          64.5812   91.5387   12.4116 C.ar    1  UNL1        0.0841
     23 C          65.6466   91.7344   13.4492 C.ar    1  UNL1        0.0468
     24 C          65.4244   91.2530   14.8523 C.3     1  UNL1        0.0372
     25 C          67.8111   93.6250   15.2069 C.3     1  UNL1        0.2542
     26 O          67.9995   92.6073   14.1212 O.3     1  UNL1       -0.4563
@<TRIPOS>BOND
     1    25    26    1
     2    26    18    1
     3    18    19   ar
     4    19    20   ar
     5    20    21   ar
     6    21    22   ar
     7    22    17    1
     8    17     1    1
     9     1     2   ar
    10     2     3   ar
    11     3     4   ar
    12     4     5   ar
    13     5    10    1
    14    10    11    2
    15    10    12   am
    16    12    14    1
    17    14    15    1
    18    15    16    1
    19     5     6   ar
    20     6     7   ar
    21     7     8   ar
    22     8     9   ar
    23    22    23   ar
    24    23    24    1
    25    23    18   ar
    26     9     1   ar
    27     9     4   ar
    28    12    13    1
@<TRIPOS>MOLECULE
*****
 26 28 0 0 0
SMALL
GASTEIGER

@<TRIPOS>ATOM
      1 N          63.5609   89.4246   13.0618 N.ar    1  UNL1       -0.3032
      2 C          64.0668   88.4323   14.0665 C.ar    1  UNL1        0.1788
      3 N          63.7677   87.0562   13.5498 N.ar    1  UNL1       -0.2238
      4 C          63.0770   87.1981   12.2259 C.ar    1  UNL1        0.1031
      5 C          62.5479   86.1835   11.2560 C.ar    1  UNL1        0.0724
      6 C          61.8910   86.6328    9.9846 C.ar    1  UNL1        0.0061
      7 C          61.7632   88.0966    9.6830 C.ar    1  UNL1        0.0017
      8 C          62.2922   89.1111   10.6529 C.ar    1  UNL1        0.0188
      9 C          62.9492   88.6619   11.9243 C.ar    1  UNL1        0.0794
     10 C          62.6757   84.7197   11.5576 C.2     1  UNL1        0.2474
     11 O          63.0433   83.7585   10.4664 O.2     1  UNL1       -0.2701
     12 N          62.4360   84.2172   12.9504 N.am    1  UNL1       -0.2982
     13 H          62.1947   84.8481   13.6666 H       1  UNL1        0.1498
     14 C          62.5638   82.7534   13.2520 C.3     1  UNL1        0.1280
     15 C          62.0496   82.2076   14.5512 C.3     1  UNL1        0.2144
     16 F          61.3911   80.8605   14.5906 F       1  UNL1       -0.2324
     17 C          63.6509   90.9177   13.1749 C.3     1  UNL1        0.1532
     18 C          66.6425   92.7461   15.0345 C.ar    1  UNL1        0.2234
     19 N          66.1224   92.7819   16.4409 N.ar    1  UNL1       -0.1896
     20 C          64.7785   92.1963   16.7587 C.ar    1  UNL1        0.2012
     21 N          63.9546   91.5749   15.6701 N.ar    1  UNL1       -0.2265
     22 C          64.4748   91.5391   14.2636 C.ar    1  UNL1        0.0841
     23 C          65.8187   92.1247   13.9458 C.ar    1  UNL1        0.0468
     24 C          66.3387   92.0888   12.5393 C.3     1  UNL1        0.0372
     25 C          68.8716   93.8220   15.8239 C.3     1  UNL1        0.2542
     26 O          67.9864   93.3317   14.7167 O.3     1  UNL1       -0.4563
@<TRIPOS>BOND
     1    25    26    1
     2    26    18    1
     3    18    19   ar
     4    19    20   ar
     5    20    21   ar
     6    21    22   ar
     7    22    17    1
     8    17     1    1
     9     1     2   ar
    10     2     3   ar
    11     3     4   ar
    12     4     5   ar
    13     5    10    1
    14    10    11    2
    15    10    12   am
    16    12    14    1
    17    14    15    1
    18    15    16    1
    19     5     6   ar
    20     6     7   ar
    21     7     8   ar
    22     8     9   ar
    23    22    23   ar
    24    23    24    1
    25    23    18   ar
    26     9     1   ar
    27     9     4   ar
    28    12    13    1
@<TRIPOS>MOLECULE
*****
 26 28 0 0 0
SMALL
GASTEIGER

@<TRIPOS>ATOM
      1 N          62.2361   89.6593   11.7953 N.ar    1  UNL1       -0.3032
      2 C          61.5012   90.7996   11.1553 C.ar    1  UNL1        0.1788
      3 N          60.7243   90.2561    9.9929 N.ar    1  UNL1       -0.2238
      4 C          60.9790   88.7799    9.9146 C.ar    1  UNL1        0.1031
      5 C          60.4809   87.7240    8.9729 C.ar    1  UNL1        0.0724
      6 C          60.9172   86.2993    9.1452 C.ar    1  UNL1        0.0061
      7 C          61.8516   85.9304   10.2591 C.ar    1  UNL1        0.0017
      8 C          62.3497   86.9864   11.2008 C.ar    1  UNL1        0.0188
      9 C          61.9134   88.4111   11.0286 C.ar    1  UNL1        0.0794
     10 C          59.5465   88.0929    7.8590 C.2     1  UNL1        0.2474
     11 O          58.4447   87.1553    7.4629 O.2     1  UNL1       -0.2701
     12 N          59.7140   89.3992    7.1412 N.am    1  UNL1       -0.2982
     13 H          60.4371   90.0146    7.4011 H       1  UNL1        0.1498
     14 C          58.7796   89.7680    6.0272 C.3     1  UNL1        0.1280
     15 C          58.7683   91.1687    5.4905 C.3     1  UNL1        0.2144
     16 F          57.5948   91.6574    4.6943 F       1  UNL1       -0.2324
     17 C          63.1359   89.7511   12.9920 C.3     1  UNL1        0.1532
     18 C          65.7034   92.3594   14.5267 C.ar    1  UNL1        0.2234
     19 N          66.1538   93.0759   13.2883 N.ar    1  UNL1       -0.1896
     20 C          65.5983   92.6842   11.9512 C.ar    1  UNL1        0.2012
     21 N          64.5924   91.5760   11.8524 N.ar    1  UNL1       -0.2265
     22 C          64.1419   90.8594   13.0908 C.ar    1  UNL1        0.0841
     23 C          64.6974   91.2511   14.4279 C.ar    1  UNL1        0.0468
     24 C          64.2469   90.5345   15.6663 C.3     1  UNL1        0.0372
     25 C          67.7405   92.7261   16.0970 C.3     1  UNL1        0.2542
     26 O          66.2589   92.7511   15.8639 O.3     1  UNL1       -0.4563
@<TRIPOS>BOND
     1    25    26    1
     2    26    18    1
     3    18    19   ar
     4    19    20   ar
     5    20    21   ar
     6    21    22   ar
     7    22    17    1
     8    17     1    1
     9     1     2   ar
    10     2     3   ar
    11     3     4   ar
    12     4     5   ar
    13     5    10    1
    14    10    11    2
    15    10    12   am
    16    12    14    1
    17    14    15    1
    18    15    16    1
    19     5     6   ar
    20     6     7   ar
    21     7     8   ar
    22     8     9   ar
    23    22    23   ar
    24    23    24    1
    25    23    18   ar
    26     9     1   ar
    27     9     4   ar
    28    12    13    1
@<TRIPOS>MOLECULE
*****
 26 28 0 0 0
SMALL
GASTEIGER

@<TRIPOS>ATOM
      1 N          62.9689   90.1443   12.6293 N.ar    1  UNL1       -0.3032
      2 C          63.4359   89.7113   13.9874 C.ar    1  UNL1        0.1788
      3 N          64.7478   90.3845   14.2628 N.ar    1  UNL1       -0.2238
      4 C          65.0916   91.2335   13.0749 C.ar    1  UNL1        0.1031
      5 C          66.2636   92.1225   12.7822 C.ar    1  UNL1        0.0724
      6 C          66.3363   92.8632   11.4798 C.ar    1  UNL1        0.0061
      7 C          65.2369   92.7147   10.4702 C.ar    1  UNL1        0.0017
      8 C          64.0648   91.8257   10.7630 C.ar    1  UNL1        0.0188
      9 C          63.9921   91.0851   12.0654 C.ar    1  UNL1        0.0794
     10 C          67.3631   92.2710   13.7917 C.2     1  UNL1        0.2474
     11 O          68.7929   92.0913   13.3755 O.2     1  UNL1       -0.2701
     12 N          67.0327   92.5991   15.2176 N.am    1  UNL1       -0.2982
     13 H          66.0943   92.7171   15.4909 H       1  UNL1        0.1498
     14 C          68.1321   92.7476   16.2272 C.3     1  UNL1        0.1280
     15 C          69.2084   93.7715   16.0189 C.3     1  UNL1        0.2144
     16 F          68.9704   95.1999   16.4100 F       1  UNL1       -0.2324
     17 C          61.7012   89.7124   11.9537 C.3     1  UNL1        0.1532
     18 C          60.9637   86.9881    9.1636 C.ar    1  UNL1        0.2234
     19 N          61.5274   85.7585    9.8120 N.ar    1  UNL1       -0.1896
     20 C          62.1491   85.8469   11.1742 C.ar    1  UNL1        0.2012
     21 N          62.2070   87.1648   11.8882 N.ar    1  UNL1       -0.2265
     22 C          61.6433   88.3944   11.2398 C.ar    1  UNL1        0.0841
     23 C          61.0217   88.3060    9.8775 C.ar    1  UNL1        0.0468
     24 C          60.4580   89.5356    9.2292 C.3     1  UNL1        0.0372
     25 C          58.8528   86.7866    7.6625 C.3     1  UNL1        0.2542
     26 O          60.3421   86.8997    7.8013 O.3     1  UNL1       -0.4563
@<TRIPOS>BOND
     1    25    26    1
     2    26    18    1
     3    18    19   ar
     4    19    20   ar
     5    20    21   ar
     6    21    22   ar
     7    22    17    1
     8    17     1    1
     9     1     2   ar
    10     2     3   ar
    11     3     4   ar
    12     4     5   ar
    13     5    10    1
    14    10    11    2
    15    10    12   am
    16    12    14    1
    17    14    15    1
    18    15    16    1
    19     5     6   ar
    20     6     7   ar
    21     7     8   ar
    22     8     9   ar
    23    22    23   ar
    24    23    24    1
    25    23    18   ar
    26     9     1   ar
    27     9     4   ar
    28    12    13    1
@<TRIPOS>MOLECULE
*****
 26 28 0 0 0
SMALL
GASTEIGER

@<TRIPOS>ATOM
      1 N          62.5370   89.6330   11.3092 N.ar    1  UNL1       -0.3032
      2 C          62.5961   90.5858   10.1522 C.ar    1  UNL1        0.1788
      3 N          63.6069   91.6458   10.4759 N.ar    1  UNL1       -0.2238
      4 C          64.1725   91.3480   11.8329 C.ar    1  UNL1        0.1031
      5 C          65.2042   92.0490   12.6661 C.ar    1  UNL1        0.0724
      6 C          65.5746   91.5059   14.0144 C.ar    1  UNL1        0.0061
      7 C          64.9133   90.2619   14.5294 C.ar    1  UNL1        0.0017
      8 C          63.8817   89.5610   13.6962 C.ar    1  UNL1        0.0188
      9 C          63.5112   90.1041   12.3479 C.ar    1  UNL1        0.0794
     10 C          65.8654   93.2929   12.1511 C.2     1  UNL1        0.2474
     11 O          66.6099   94.1917   13.0934 O.2     1  UNL1       -0.2701
     12 N          65.7821   93.6382   10.6938 N.am    1  UNL1       -0.2982
     13 H          65.2935   93.0484   10.0753 H       1  UNL1        0.1498
     14 C          66.4434   94.8822   10.1788 C.3     1  UNL1        0.1280
     15 C          67.6667   94.7794    9.3168 C.3     1  UNL1        0.2144
     16 F          67.9104   93.5417    8.5052 F       1  UNL1       -0.2324
     17 C          61.6580   88.4217   11.4098 C.3     1  UNL1        0.1532
     18 C          62.9043   84.7656   10.4988 C.ar    1  UNL1        0.2234
     19 N          62.6301   84.7318    9.0245 N.ar    1  UNL1       -0.1896
     20 C          62.0319   85.9279    8.3453 C.ar    1  UNL1        0.2012
     21 N          61.7078   87.1579    9.1403 N.ar    1  UNL1       -0.2265
     22 C          61.9820   87.1917   10.6146 C.ar    1  UNL1        0.0841
     23 C          62.5802   85.9955   11.2939 C.ar    1  UNL1        0.0468
     24 C          62.8544   86.0294   12.7683 C.3     1  UNL1        0.0372
     25 C          64.4117   82.6512   10.4165 C.3     1  UNL1        0.2542
     26 O          63.5025   83.5694   11.1781 O.3     1  UNL1       -0.4563
@<TRIPOS>BOND
     1    25    26    1
     2    26    18    1
     3    18    19   ar
     4    19    20   ar
     5    20    21   ar
     6    21    22   ar
     7    22    17    1
     8    17     1    1
     9     1     2   ar
    10     2     3   ar
    11     3     4   ar
    12     4     5   ar
    13     5    10    1
    14    10    11    2
    15    10    12   am
    16    12    14    1
    17    14    15    1
    18    15    16    1
    19     5     6   ar
    20     6     7   ar
    21     7     8   ar
    22     8     9   ar
    23    22    23   ar
    24    23    24    1
    25    23    18   ar
    26     9     1   ar
    27     9     4   ar
    28    12    13    1
