@<TRIPOS>MOLECULE
*****
 24 26 0 0 0
SMALL
GASTEIGER

@<TRIPOS>ATOM
      1 C          62.4885   89.2769   10.6762 C.ar    1  UNL1       -0.0223
      2 C          62.8765   88.8606   12.0641 C.ar    1  UNL1       -0.0012
      3 C          63.6232   89.8120   12.9513 C.ar    1  UNL1        0.0366
      4 C          63.9821   91.1797   12.4506 C.ar    1  UNL1        0.1385
      5 C          63.5942   91.5959   11.0628 C.ar    1  UNL1        0.0366
      6 C          62.8474   90.6445   10.1756 C.ar    1  UNL1       -0.0012
      7 O          59.5013   85.4713    7.1274 O.3     1  UNL1       -0.3845
      8 C          60.2481   86.4227    8.0146 C.3     1  UNL1        0.1105
      9 C          61.4827   85.9656    8.7335 C.3     1  UNL1        0.0296
     10 C          62.2295   86.9170    9.6207 C.3     1  UNL1        0.0068
     11 C          61.7417   88.3255    9.7890 C.3     1  UNL1        0.0225
     12 C          60.5072   88.7825    9.0701 C.3     1  UNL1        0.0068
     13 C          59.7604   87.8311    8.1829 C.3     1  UNL1        0.0296
     14 H          59.9467   84.6095    7.1300 H       1  UNL1        0.2103
     15 O          64.7289   92.1311   13.3378 O.3     1  UNL1       -0.4754
     16 C          66.1320   91.8150   13.7638 C.3     1  UNL1        0.2068
     17 C          67.2924   92.3320   12.9661 C.3     1  UNL1        0.0646
     18 C          67.1927   92.4272   11.4724 C.3     1  UNL1        0.0759
     19 N          67.0688   93.7688   10.8130 N.3     1  UNL1       -0.2726
     20 C          66.3061   94.8692   11.4891 C.3     1  UNL1        0.0721
     21 C          66.1822   96.2108   10.8298 C.3     1  UNL1        0.0174
     22 C          66.8211   96.4520    9.4943 C.3     1  UNL1        0.0029
     23 C          67.5839   95.3515    8.8181 C.3     1  UNL1        0.0174
     24 C          67.7078   94.0099    9.4774 C.3     1  UNL1        0.0721
@<TRIPOS>BOND
     1     8     7    1
     2     8     9    1
     3     9    10    1
     4    10    11    1
     5    11     1    1
     6     1     2   ar
     7     2     3   ar
     8     3     4   ar
     9     4    15    1
    10    15    16    1
    11    16    17    1
    12    17    18    1
    13    18    19    1
    14    19    20    1
    15    20    21    1
    16    21    22    1
    17    22    23    1
    18    23    24    1
    19     4     5   ar
    20     5     6   ar
    21    11    12    1
    22    12    13    1
    23    13     8    1
    24     6     1   ar
    25    24    19    1
    26     7    14    1
@<TRIPOS>MOLECULE
*****
 24 26 0 0 0
SMALL
GASTEIGER

@<TRIPOS>ATOM
      1 C          62.5134   89.2936   10.7057 C.ar    1  UNL1       -0.0223
      2 C          62.9016   90.6540   10.2071 C.ar    1  UNL1       -0.0012
      3 C          63.6567   91.5929   11.1005 C.ar    1  UNL1        0.0366
      4 C          64.0236   91.1716   12.4925 C.ar    1  UNL1        0.1385
      5 C          63.6353   89.8112   12.9912 C.ar    1  UNL1        0.0366
      6 C          62.8802   88.8723   12.0978 C.ar    1  UNL1       -0.0012
      7 O          59.4930   85.5377    7.1322 O.3     1  UNL1       -0.3845
      8 C          60.2481   86.4767    8.0256 C.3     1  UNL1        0.1105
      9 C          59.7617   87.8824    8.2184 C.3     1  UNL1        0.0296
     10 C          60.5168   88.8214    9.1118 C.3     1  UNL1        0.0068
     11 C          61.7583   88.3546    9.8124 C.3     1  UNL1        0.0225
     12 C          62.2446   86.9489    9.6196 C.3     1  UNL1        0.0068
     13 C          61.4895   86.0099    8.7262 C.3     1  UNL1        0.0296
     14 H          58.7220   85.9945    6.7609 H       1  UNL1        0.2103
     15 O          64.7787   92.1106   13.3859 O.3     1  UNL1       -0.4754
     16 C          66.1864   91.7897   13.7926 C.3     1  UNL1        0.2068
     17 C          67.3385   92.3442   13.0082 C.3     1  UNL1        0.0646
     18 C          67.2656   92.4070   11.5112 C.3     1  UNL1        0.0759
     19 N          67.1032   93.7299   10.8231 N.3     1  UNL1       -0.2726
     20 C          67.7397   93.9624    9.4850 C.3     1  UNL1        0.0721
     21 C          67.5774   95.2853    8.7969 C.3     1  UNL1        0.0174
     22 C          66.7786   96.3758    9.4470 C.3     1  UNL1        0.0029
     23 C          66.1420   96.1434   10.7852 C.3     1  UNL1        0.0174
     24 C          66.3043   94.8204   11.4733 C.3     1  UNL1        0.0721
@<TRIPOS>BOND
     1     8     7    1
     2     8     9    1
     3     9    10    1
     4    10    11    1
     5    11     1    1
     6     1     2   ar
     7     2     3   ar
     8     3     4   ar
     9     4    15    1
    10    15    16    1
    11    16    17    1
    12    17    18    1
    13    18    19    1
    14    19    20    1
    15    20    21    1
    16    21    22    1
    17    22    23    1
    18    23    24    1
    19     4     5   ar
    20     5     6   ar
    21    11    12    1
    22    12    13    1
    23    13     8    1
    24     6     1   ar
    25    24    19    1
    26     7    14    1
@<TRIPOS>MOLECULE
*****
 24 26 0 0 0
SMALL
GASTEIGER

@<TRIPOS>ATOM
      1 C          61.8801   85.7956   10.0373 C.ar    1  UNL1       -0.0223
      2 C          61.7036   85.8098   11.5268 C.ar    1  UNL1       -0.0012
      3 C          62.5450   84.9173   12.3902 C.ar    1  UNL1        0.0366
      4 C          63.5628   84.0106   11.7642 C.ar    1  UNL1        0.1385
      5 C          63.7392   83.9964   10.2747 C.ar    1  UNL1        0.0366
      6 C          62.8979   84.8889    9.4112 C.ar    1  UNL1       -0.0012
      7 O          58.5146   89.3657    6.5835 O.3     1  UNL1       -0.3845
      8 C          59.3560   88.4732    7.4470 C.3     1  UNL1        0.1105
      9 C          59.3312   86.9879    7.2388 C.3     1  UNL1        0.0296
     10 C          60.1725   86.0954    8.1022 C.3     1  UNL1        0.0068
     11 C          61.0387   86.6881    9.1739 C.3     1  UNL1        0.0225
     12 C          61.0635   88.1734    9.3820 C.3     1  UNL1        0.0068
     13 C          60.2221   89.0659    8.5186 C.3     1  UNL1        0.0296
     14 H          58.0196   88.8266    5.9469 H       1  UNL1        0.2103
     15 O          64.4041   83.1181   12.6276 O.3     1  UNL1       -0.4754
     16 C          64.3392   83.2412   14.1211 C.3     1  UNL1        0.2068
     17 C          64.7698   84.5138   14.7882 C.3     1  UNL1        0.0646
     18 C          63.8305   85.2317   15.7115 C.3     1  UNL1        0.0759
     19 N          63.7636   86.7301   15.6968 N.3     1  UNL1       -0.2726
     20 C          63.1314   87.4639   16.8422 C.3     1  UNL1        0.0721
     21 C          63.0644   88.9623   16.8274 C.3     1  UNL1        0.0174
     22 C          63.6296   89.7270   15.6674 C.3     1  UNL1        0.0029
     23 C          64.2618   88.9932   14.5220 C.3     1  UNL1        0.0174
     24 C          64.3288   87.4948   14.5367 C.3     1  UNL1        0.0721
@<TRIPOS>BOND
     1     8     7    1
     2     8     9    1
     3     9    10    1
     4    10    11    1
     5    11     1    1
     6     1     2   ar
     7     2     3   ar
     8     3     4   ar
     9     4    15    1
    10    15    16    1
    11    16    17    1
    12    17    18    1
    13    18    19    1
    14    19    20    1
    15    20    21    1
    16    21    22    1
    17    22    23    1
    18    23    24    1
    19     4     5   ar
    20     5     6   ar
    21    11    12    1
    22    12    13    1
    23    13     8    1
    24     6     1   ar
    25    24    19    1
    26     7    14    1
@<TRIPOS>MOLECULE
*****
 24 26 0 0 0
SMALL
GASTEIGER

@<TRIPOS>ATOM
      1 C          62.4982   88.7482   10.7079 C.ar    1  UNL1       -0.0223
      2 C          62.6603   90.1974   10.3566 C.ar    1  UNL1       -0.0012
      3 C          63.2444   91.1508   11.3565 C.ar    1  UNL1        0.0366
      4 C          63.6664   90.6549   12.7078 C.ar    1  UNL1        0.1385
      5 C          63.5043   89.2057   13.0591 C.ar    1  UNL1        0.0366
      6 C          62.9202   88.2523   12.0592 C.ar    1  UNL1       -0.0012
      7 O          60.1619   84.9347    6.7080 O.3     1  UNL1       -0.3845
      8 C          60.7459   85.8881    7.7080 C.3     1  UNL1        0.1105
      9 C          62.0860   85.6054    8.3197 C.3     1  UNL1        0.0296
     10 C          62.6701   86.5588    9.3197 C.3     1  UNL1        0.0068
     11 C          61.9141   87.7948    9.7079 C.3     1  UNL1        0.0225
     12 C          60.5741   88.0775    9.0961 C.3     1  UNL1        0.0068
     13 C          59.9900   87.1241    8.0961 C.3     1  UNL1        0.0296
     14 H          60.7738   84.1946    6.5711 H       1  UNL1        0.2103
     15 O          64.2504   91.6083   13.7078 O.3     1  UNL1       -0.4754
     16 C          65.3304   91.1476   14.6413 C.3     1  UNL1        0.2068
     17 C          66.5669   91.9765   14.8251 C.3     1  UNL1        0.0646
     18 C          67.5934   92.0445   13.7334 C.3     1  UNL1        0.0759
     19 N          67.2582   92.7042   12.4287 N.3     1  UNL1       -0.2726
     20 C          67.7889   92.1393   11.1445 C.3     1  UNL1        0.0721
     21 C          67.4536   92.7991    9.8397 C.3     1  UNL1        0.0174
     22 C          66.5877   94.0237    9.8192 C.3     1  UNL1        0.0029
     23 C          66.0570   94.5886   11.1034 C.3     1  UNL1        0.0174
     24 C          66.3922   93.9289   12.4082 C.3     1  UNL1        0.0721
@<TRIPOS>BOND
     1     8     7    1
     2     8     9    1
     3     9    10    1
     4    10    11    1
     5    11     1    1
     6     1     2   ar
     7     2     3   ar
     8     3     4   ar
     9     4    15    1
    10    15    16    1
    11    16    17    1
    12    17    18    1
    13    18    19    1
    14    19    20    1
    15    20    21    1
    16    21    22    1
    17    22    23    1
    18    23    24    1
    19     4     5   ar
    20     5     6   ar
    21    11    12    1
    22    12    13    1
    23    13     8    1
    24     6     1   ar
    25    24    19    1
    26     7    14    1
@<TRIPOS>MOLECULE
*****
 24 26 0 0 0
SMALL
GASTEIGER

@<TRIPOS>ATOM
      1 C          61.8096   85.8654    9.9122 C.ar    1  UNL1       -0.0223
      2 C          61.6344   85.8921   11.4017 C.ar    1  UNL1       -0.0012
      3 C          62.4773   85.0078   12.2720 C.ar    1  UNL1        0.0366
      4 C          63.4954   84.0966   11.6528 C.ar    1  UNL1        0.1385
      5 C          63.6706   84.0699   10.1634 C.ar    1  UNL1        0.0366
      6 C          62.8277   84.9543    9.2931 C.ar    1  UNL1       -0.0012
      7 O          58.4380   89.4028    6.4310 O.3     1  UNL1       -0.3845
      8 C          59.2809   88.5184    7.3013 C.3     1  UNL1        0.1105
      9 C          59.2684   87.0326    7.0963 C.3     1  UNL1        0.0296
     10 C          60.1113   86.1482    7.9666 C.3     1  UNL1        0.0068
     11 C          60.9667   86.7497    9.0419 C.3     1  UNL1        0.0225
     12 C          60.9793   88.2356    9.2469 C.3     1  UNL1        0.0068
     13 C          60.1364   89.1199    8.3766 C.3     1  UNL1        0.0296
     14 H          57.9508   88.8587    5.7927 H       1  UNL1        0.2103
     15 O          64.3383   83.2123   12.5231 O.3     1  UNL1       -0.4754
     16 C          63.7173   82.4865   13.6797 C.3     1  UNL1        0.2068
     17 C          63.5114   83.1943   14.9860 C.3     1  UNL1        0.0646
     18 C          64.5229   84.1928   15.4657 C.3     1  UNL1        0.0759
     19 N          64.1077   85.6075   15.7417 N.3     1  UNL1       -0.2726
     20 C          64.5041   86.7033   14.7973 C.3     1  UNL1        0.0721
     21 C          64.0889   88.1180   15.0734 C.3     1  UNL1        0.0174
     22 C          63.2772   88.4369   16.2938 C.3     1  UNL1        0.0029
     23 C          62.8808   87.3410   17.2383 C.3     1  UNL1        0.0174
     24 C          63.2960   85.9263   16.9623 C.3     1  UNL1        0.0721
@<TRIPOS>BOND
     1     8     7    1
     2     8     9    1
     3     9    10    1
     4    10    11    1
     5    11     1    1
     6     1     2   ar
     7     2     3   ar
     8     3     4   ar
     9     4    15    1
    10    15    16    1
    11    16    17    1
    12    17    18    1
    13    18    19    1
    14    19    20    1
    15    20    21    1
    16    21    22    1
    17    22    23    1
    18    23    24    1
    19     4     5   ar
    20     5     6   ar
    21    11    12    1
    22    12    13    1
    23    13     8    1
    24     6     1   ar
    25    24    19    1
    26     7    14    1
@<TRIPOS>MOLECULE
*****
 24 26 0 0 0
SMALL
GASTEIGER

@<TRIPOS>ATOM
      1 C          63.5060   86.1053   13.3928 C.ar    1  UNL1       -0.0223
      2 C          62.9554   86.9549   12.2861 C.ar    1  UNL1       -0.0012
      3 C          63.1445   88.4426   12.3176 C.ar    1  UNL1        0.0366
      4 C          63.8842   89.0807   13.4559 C.ar    1  UNL1        0.1385
      5 C          64.4348   88.2310   14.5626 C.ar    1  UNL1        0.0366
      6 C          64.2457   86.7433   14.5310 C.ar    1  UNL1       -0.0012
      7 O          62.7495   80.1545   13.2665 O.3     1  UNL1       -0.3845
      8 C          62.9386   81.6422   13.2981 C.3     1  UNL1        0.1105
      9 C          62.4043   82.4419   14.4491 C.3     1  UNL1        0.0296
     10 C          62.5934   83.9296   14.4807 C.3     1  UNL1        0.0068
     11 C          63.3168   84.6176   13.3612 C.3     1  UNL1        0.0225
     12 C          63.8512   83.8179   12.2102 C.3     1  UNL1        0.0068
     13 C          63.6620   82.3302   12.1786 C.3     1  UNL1        0.0296
     14 H          62.2660   79.8731   14.0589 H       1  UNL1        0.2103
     15 O          64.0733   90.5683   13.4875 O.3     1  UNL1       -0.4754
     16 C          65.2053   91.1640   14.2709 C.3     1  UNL1        0.2068
     17 C          66.3441   91.8288   13.5560 C.3     1  UNL1        0.0646
     18 C          66.1321   93.1453   12.8688 C.3     1  UNL1        0.0759
     19 N          66.7573   93.4014   11.5296 N.3     1  UNL1       -0.2726
     20 C          67.6254   92.3559   10.8949 C.3     1  UNL1        0.0721
     21 C          68.2507   92.6120    9.5556 C.3     1  UNL1        0.0174
     22 C          68.0077   93.9138    8.8512 C.3     1  UNL1        0.0029
     23 C          67.1395   94.9595    9.4859 C.3     1  UNL1        0.0174
     24 C          66.5143   94.7033   10.8251 C.3     1  UNL1        0.0721
@<TRIPOS>BOND
     1     8     7    1
     2     8     9    1
     3     9    10    1
     4    10    11    1
     5    11     1    1
     6     1     2   ar
     7     2     3   ar
     8     3     4   ar
     9     4    15    1
    10    15    16    1
    11    16    17    1
    12    17    18    1
    13    18    19    1
    14    19    20    1
    15    20    21    1
    16    21    22    1
    17    22    23    1
    18    23    24    1
    19     4     5   ar
    20     5     6   ar
    21    11    12    1
    22    12    13    1
    23    13     8    1
    24     6     1   ar
    25    24    19    1
    26     7    14    1
@<TRIPOS>MOLECULE
*****
 24 26 0 0 0
SMALL
GASTEIGER

@<TRIPOS>ATOM
      1 C          63.1883   84.2894   14.4671 C.ar    1  UNL1       -0.0223
      2 C          64.0945   85.3846   13.9884 C.ar    1  UNL1       -0.0012
      3 C          64.2303   86.6479   14.7857 C.ar    1  UNL1        0.0366
      4 C          63.4599   86.8160   16.0617 C.ar    1  UNL1        0.1385
      5 C          62.5536   85.7208   16.5404 C.ar    1  UNL1        0.0366
      6 C          62.4178   84.4575   15.7431 C.ar    1  UNL1       -0.0012
      7 O          62.6451   79.2362   11.2781 O.3     1  UNL1       -0.3845
      8 C          62.7809   80.4995   12.0754 C.3     1  UNL1        0.1105
      9 C          62.3099   80.5423   13.4988 C.3     1  UNL1        0.0296
     10 C          62.4457   81.8056   14.2961 C.3     1  UNL1        0.0068
     11 C          63.0525   83.0261   13.6699 C.3     1  UNL1        0.0225
     12 C          63.5235   82.9833   12.2464 C.3     1  UNL1        0.0068
     13 C          63.3877   81.7200   11.4492 C.3     1  UNL1        0.0296
     14 H          62.2364   78.5493   11.8278 H       1  UNL1        0.2103
     15 O          63.5957   88.0793   16.8589 O.3     1  UNL1       -0.4754
     16 C          62.9438   89.3424   16.3797 C.3     1  UNL1        0.2068
     17 C          63.7779   90.4378   15.7846 C.3     1  UNL1        0.0646
     18 C          64.6646   90.1510   14.6091 C.3     1  UNL1        0.0759
     19 N          64.1674   90.4005   13.2161 N.3     1  UNL1       -0.2726
     20 C          64.6367   91.6060   12.4569 C.3     1  UNL1        0.0721
     21 C          64.1395   91.8555   11.0639 C.3     1  UNL1        0.0174
     22 C          63.1730   90.8994   10.4300 C.3     1  UNL1        0.0029
     23 C          62.7037   89.6938   11.1892 C.3     1  UNL1        0.0174
     24 C          63.2009   89.4443   12.5823 C.3     1  UNL1        0.0721
@<TRIPOS>BOND
     1     8     7    1
     2     8     9    1
     3     9    10    1
     4    10    11    1
     5    11     1    1
     6     1     2   ar
     7     2     3   ar
     8     3     4   ar
     9     4    15    1
    10    15    16    1
    11    16    17    1
    12    17    18    1
    13    18    19    1
    14    19    20    1
    15    20    21    1
    16    21    22    1
    17    22    23    1
    18    23    24    1
    19     4     5   ar
    20     5     6   ar
    21    11    12    1
    22    12    13    1
    23    13     8    1
    24     6     1   ar
    25    24    19    1
    26     7    14    1
@<TRIPOS>MOLECULE
*****
 24 26 0 0 0
SMALL
GASTEIGER

@<TRIPOS>ATOM
      1 C          62.5096   85.4230   11.8663 C.ar    1  UNL1       -0.0223
      2 C          61.7580   85.5786   10.5776 C.ar    1  UNL1       -0.0012
      3 C          61.5621   86.9419    9.9835 C.ar    1  UNL1        0.0366
      4 C          62.1179   88.1496   10.6781 C.ar    1  UNL1        0.1385
      5 C          62.8695   87.9940   11.9668 C.ar    1  UNL1        0.0366
      6 C          63.0654   86.6307   12.5609 C.ar    1  UNL1       -0.0012
      7 O          63.2931   79.9696   14.2427 O.3     1  UNL1       -0.3845
      8 C          63.0973   81.3330   13.6486 C.3     1  UNL1        0.1105
      9 C          63.0434   81.5013   12.1591 C.3     1  UNL1        0.0296
     10 C          62.8476   82.8647   11.5650 C.3     1  UNL1        0.0068
     11 C          62.7055   84.0596   12.4604 C.3     1  UNL1        0.0225
     12 C          62.7593   83.8913   13.9499 C.3     1  UNL1        0.0068
     13 C          62.9552   82.5279   14.5440 C.3     1  UNL1        0.0296
     14 H          63.3664   79.3144   13.5313 H       1  UNL1        0.2103
     15 O          61.9220   89.5130   10.0840 O.3     1  UNL1       -0.4754
     16 C          63.0518   90.4996   10.0820 C.3     1  UNL1        0.2068
     17 C          63.2417   91.4248   11.2472 C.3     1  UNL1        0.0646
     18 C          63.8661   90.9179   12.5135 C.3     1  UNL1        0.0759
     19 N          64.8533   91.7689   13.2558 N.3     1  UNL1       -0.2726
     20 C          65.5601   92.8874   12.5492 C.3     1  UNL1        0.0721
     21 C          66.5473   93.7384   13.2915 C.3     1  UNL1        0.0174
     22 C          66.8278   93.4710   14.7406 C.3     1  UNL1        0.0029
     23 C          66.1209   92.3525   15.4473 C.3     1  UNL1        0.0174
     24 C          65.1337   91.5015   14.7050 C.3     1  UNL1        0.0721
@<TRIPOS>BOND
     1     8     7    1
     2     8     9    1
     3     9    10    1
     4    10    11    1
     5    11     1    1
     6     1     2   ar
     7     2     3   ar
     8     3     4   ar
     9     4    15    1
    10    15    16    1
    11    16    17    1
    12    17    18    1
    13    18    19    1
    14    19    20    1
    15    20    21    1
    16    21    22    1
    17    22    23    1
    18    23    24    1
    19     4     5   ar
    20     5     6   ar
    21    11    12    1
    22    12    13    1
    23    13     8    1
    24     6     1   ar
    25    24    19    1
    26     7    14    1
@<TRIPOS>MOLECULE
*****
 24 26 0 0 0
SMALL
GASTEIGER

@<TRIPOS>ATOM
      1 C          62.0515   87.5614   11.0368 C.ar    1  UNL1       -0.0223
      2 C          62.2027   86.1205   11.4250 C.ar    1  UNL1       -0.0012
      3 C          63.0489   85.7466   12.6057 C.ar    1  UNL1        0.0366
      4 C          63.7440   86.8137   13.3982 C.ar    1  UNL1        0.1385
      5 C          63.5928   88.2546   13.0101 C.ar    1  UNL1        0.0366
      6 C          62.7466   88.6285   11.8294 C.ar    1  UNL1       -0.0012
      7 O          58.6666   89.0570    6.3139 O.3     1  UNL1       -0.3845
      8 C          59.5128   88.6831    7.4947 C.3     1  UNL1        0.1105
      9 C          59.7113   87.2389    7.8479 C.3     1  UNL1        0.0296
     10 C          60.5575   86.8650    9.0286 C.3     1  UNL1        0.0068
     11 C          61.2053   87.9353    9.8561 C.3     1  UNL1        0.0225
     12 C          61.0069   89.3796    9.5028 C.3     1  UNL1        0.0068
     13 C          60.1606   89.7535    8.3221 C.3     1  UNL1        0.0296
     14 H          58.3260   88.2525    5.8925 H       1  UNL1        0.2103
     15 O          64.5902   86.4398   14.5790 O.3     1  UNL1       -0.4754
     16 C          63.9457   85.9136   15.8270 C.3     1  UNL1        0.2068
     17 C          63.3921   84.5198   15.8549 C.3     1  UNL1        0.0646
     18 C          64.1941   83.3828   15.2942 C.3     1  UNL1        0.0759
     19 N          63.7187   82.6632   14.0670 N.3     1  UNL1       -0.2726
     20 C          64.4720   82.8015   12.7774 C.3     1  UNL1        0.0721
     21 C          63.9966   82.0819   11.5501 C.3     1  UNL1        0.0174
     22 C          62.7678   81.2239   11.6126 C.3     1  UNL1        0.0029
     23 C          62.0144   81.0855   12.9023 C.3     1  UNL1        0.0174
     24 C          62.4898   81.8052   14.1295 C.3     1  UNL1        0.0721
@<TRIPOS>BOND
     1     8     7    1
     2     8     9    1
     3     9    10    1
     4    10    11    1
     5    11     1    1
     6     1     2   ar
     7     2     3   ar
     8     3     4   ar
     9     4    15    1
    10    15    16    1
    11    16    17    1
    12    17    18    1
    13    18    19    1
    14    19    20    1
    15    20    21    1
    16    21    22    1
    17    22    23    1
    18    23    24    1
    19     4     5   ar
    20     5     6   ar
    21    11    12    1
    22    12    13    1
    23    13     8    1
    24     6     1   ar
    25    24    19    1
    26     7    14    1
