@<TRIPOS>MOLECULE
*****
 32 36 0 0 0
SMALL
GASTEIGER

@<TRIPOS>ATOM
      1 O          63.5123   87.1706   13.4269 O.2     1  UNL1       -0.2698
      2 C          63.0328   86.2636   12.3326 C.2     1  UNL1        0.2507
      3 N          62.2015   86.8145   11.2122 N.am    1  UNL1       -0.2723
      4 C          61.7219   85.9075   10.1179 C.3     1  UNL1        0.1257
      5 C          60.8906   86.4585    8.9975 C.3     1  UNL1        0.1637
      6 O          60.5388   87.9164    8.9713 O.3     1  UNL1       -0.3502
      7 C          61.0184   88.8234   10.0656 C.3     1  UNL1        0.1622
      8 C          61.8497   88.2725   11.1860 C.3     1  UNL1        0.1096
      9 C          63.3846   84.8057   12.3588 C.ar    1  UNL1        0.0752
     10 C          63.6857   84.0837   11.0789 C.ar    1  UNL1        0.0357
     11 C          64.0375   82.6258   11.1051 C.ar    1  UNL1        0.1404
     12 F          64.3387   81.9038    9.8252 F       1  UNL1       -0.2042
     13 C          64.0882   81.8899   12.4111 C.ar    1  UNL1        0.0312
     14 C          63.7870   82.6118   13.6910 C.ar    1  UNL1        0.0234
     15 C          63.4352   84.0697   13.6648 C.ar    1  UNL1        0.1074
     16 N          63.1341   84.7917   14.9447 N.ar    1  UNL1       -0.1477
     17 N          61.7795   84.9529   15.5684 N.ar    1  UNL1       -0.1447
     18 C          61.9429   85.7401   16.8348 C.ar    1  UNL1        0.1446
     19 C          63.3985   86.0653   16.9938 C.ar    1  UNL1        0.1446
     20 N          64.1347   85.4791   15.8257 N.ar    1  UNL1       -0.1447
     21 C          62.3292   89.1795   12.2802 C.3     1  UNL1        0.0488
     22 C          63.3067   90.2747   11.9722 C.ar    1  UNL1       -0.0189
     23 C          63.2997   90.9283   10.6221 C.ar    1  UNL1       -0.0041
     24 C          64.2772   92.0236   10.3139 C.ar    1  UNL1        0.0013
     25 C          65.2617   92.4653   11.3559 C.ar    1  UNL1        0.0209
     26 C          65.2686   91.8117   12.7061 C.ar    1  UNL1        0.1026
     27 C          64.2911   90.7164   13.0142 C.ar    1  UNL1        0.0167
     28 N          66.2530   92.2534   13.7481 N.ar    1  UNL1       -0.1478
     29 N          67.7458   92.2670   13.6013 N.ar    1  UNL1       -0.1447
     30 C          68.3329   92.7810   14.8823 C.ar    1  UNL1        0.1446
     31 C          67.2030   93.0851   15.8209 C.ar    1  UNL1        0.1446
     32 N          65.9175   92.7589   15.1200 N.ar    1  UNL1       -0.1447
@<TRIPOS>BOND
     1     1     2    2
     2     2     9    1
     3     9    10   ar
     4    10    11   ar
     5    11    12    1
     6    11    13   ar
     7    13    14   ar
     8    14    15   ar
     9    15    16    1
    10    16    17   ar
    11    17    18   ar
    12    18    19   ar
    13    19    20   ar
    14     2     3   am
    15     3     4    1
    16     4     5    1
    17     5     6    1
    18     6     7    1
    19     7     8    1
    20     8    21    1
    21    21    22    1
    22    22    23   ar
    23    23    24   ar
    24    24    25   ar
    25    25    26   ar
    26    26    28    1
    27    28    29   ar
    28    29    30   ar
    29    30    31   ar
    30    31    32   ar
    31    26    27   ar
    32    15     9   ar
    33    20    16   ar
    34     8     3    1
    35    27    22   ar
    36    32    28   ar
@<TRIPOS>MOLECULE
*****
 32 36 0 0 0
SMALL
GASTEIGER

@<TRIPOS>ATOM
      1 O          62.6740   90.0590   11.5007 O.2     1  UNL1       -0.2698
      2 C          62.6896   88.5594   11.5317 C.2     1  UNL1        0.2507
      3 N          63.3259   87.8396   12.6836 N.am    1  UNL1       -0.2723
      4 C          63.3416   86.3400   12.7146 C.3     1  UNL1        0.1257
      5 C          63.9779   85.6203   13.8666 C.3     1  UNL1        0.1637
      6 O          64.5986   86.4001   14.9876 O.3     1  UNL1       -0.3502
      7 C          64.5830   87.8997   14.9566 C.3     1  UNL1        0.1622
      8 C          63.9467   88.6195   13.8046 C.3     1  UNL1        0.1096
      9 C          62.0689   87.7795   10.4106 C.ar    1  UNL1        0.0752
     10 C          62.8985   86.8099    9.6223 C.ar    1  UNL1        0.0357
     11 C          62.2779   86.0301    8.5013 C.ar    1  UNL1        0.1404
     12 F          63.1075   85.0604    7.7129 F       1  UNL1       -0.2042
     13 C          60.8277   86.2199    8.1687 C.ar    1  UNL1        0.0312
     14 C          59.9980   87.1895    8.9570 C.ar    1  UNL1        0.0234
     15 C          60.6187   87.9694   10.0780 C.ar    1  UNL1        0.1074
     16 N          59.7890   88.9390   10.8664 N.ar    1  UNL1       -0.1477
     17 N          59.5590   90.3819   10.5272 N.ar    1  UNL1       -0.1447
     18 C          58.6716   90.9707   11.5835 C.ar    1  UNL1        0.1446
     19 C          58.3532   89.8916   12.5756 C.ar    1  UNL1        0.1446
     20 N          59.0438   88.6360   12.1324 N.ar    1  UNL1       -0.1447
     21 C          63.9310   90.1191   13.7736 C.3     1  UNL1        0.0488
     22 C          65.2215   90.8816   13.7177 C.ar    1  UNL1       -0.0189
     23 C          66.1626   90.8498   14.8852 C.ar    1  UNL1       -0.0041
     24 C          67.4532   91.6123   14.8293 C.ar    1  UNL1        0.0013
     25 C          67.8025   92.4066   13.6058 C.ar    1  UNL1        0.0209
     26 C          66.8613   92.4385   12.4382 C.ar    1  UNL1        0.1026
     27 C          65.5708   91.6760   12.4942 C.ar    1  UNL1        0.0167
     28 N          67.2107   93.2328   11.2147 N.ar    1  UNL1       -0.1478
     29 N          67.9821   92.7328   10.0294 N.ar    1  UNL1       -0.1447
     30 C          68.0982   93.8576    9.0438 C.ar    1  UNL1        0.1446
     31 C          67.3984   95.0528    9.6200 C.ar    1  UNL1        0.1446
     32 N          66.8499   94.6667   10.9617 N.ar    1  UNL1       -0.1447
@<TRIPOS>BOND
     1     1     2    2
     2     2     9    1
     3     9    10   ar
     4    10    11   ar
     5    11    12    1
     6    11    13   ar
     7    13    14   ar
     8    14    15   ar
     9    15    16    1
    10    16    17   ar
    11    17    18   ar
    12    18    19   ar
    13    19    20   ar
    14     2     3   am
    15     3     4    1
    16     4     5    1
    17     5     6    1
    18     6     7    1
    19     7     8    1
    20     8    21    1
    21    21    22    1
    22    22    23   ar
    23    23    24   ar
    24    24    25   ar
    25    25    26   ar
    26    26    28    1
    27    28    29   ar
    28    29    30   ar
    29    30    31   ar
    30    31    32   ar
    31    26    27   ar
    32    15     9   ar
    33    20    16   ar
    34     8     3    1
    35    27    22   ar
    36    32    28   ar
@<TRIPOS>MOLECULE
*****
 32 36 0 0 0
SMALL
GASTEIGER

@<TRIPOS>ATOM
      1 O          63.5248   87.5070   13.3443 O.2     1  UNL1       -0.2698
      2 C          62.8930   87.2333   12.0117 C.2     1  UNL1        0.2507
      3 N          62.1261   88.3141   11.3090 N.am    1  UNL1       -0.2723
      4 C          61.4943   88.0404    9.9764 C.3     1  UNL1        0.1257
      5 C          60.7275   89.1214    9.2738 C.3     1  UNL1        0.1637
      6 O          60.5925   90.4759    9.9038 O.3     1  UNL1       -0.3502
      7 C          61.2243   90.7496   11.2364 C.3     1  UNL1        0.1622
      8 C          61.9911   89.6688   11.9390 C.3     1  UNL1        0.1096
      9 C          63.0280   85.8787   11.3817 C.ar    1  UNL1        0.0752
     10 C          63.0081   85.7408    9.8881 C.ar    1  UNL1        0.0357
     11 C          63.1432   84.3863    9.2581 C.ar    1  UNL1        0.1404
     12 F          63.1233   84.2484    7.7646 F       1  UNL1       -0.2042
     13 C          63.2981   83.1696   10.1216 C.ar    1  UNL1        0.0312
     14 C          63.3179   83.3075   11.6151 C.ar    1  UNL1        0.0234
     15 C          63.1829   84.6620   12.2452 C.ar    1  UNL1        0.1074
     16 N          63.2027   84.7999   13.7387 N.ar    1  UNL1       -0.1477
     17 N          64.4124   85.0713   14.5831 N.ar    1  UNL1       -0.1447
     18 C          63.9737   85.1297   16.0163 C.ar    1  UNL1        0.1446
     19 C          62.4929   84.8944   16.0577 C.ar    1  UNL1        0.1446
     20 N          62.0164   84.6906   14.6501 N.ar    1  UNL1       -0.1447
     21 C          62.6229   89.9425   13.2717 C.3     1  UNL1        0.0488
     22 C          63.9457   90.6460   13.3442 C.ar    1  UNL1       -0.0189
     23 C          64.8343   90.4510   14.5368 C.ar    1  UNL1       -0.0041
     24 C          66.1572   91.1545   14.6094 C.ar    1  UNL1        0.0013
     25 C          66.5913   92.0530   13.4895 C.ar    1  UNL1        0.0209
     26 C          65.7025   92.2479   12.2969 C.ar    1  UNL1        0.1026
     27 C          64.3798   91.5444   12.2243 C.ar    1  UNL1        0.0167
     28 N          66.1366   93.1464   11.1769 N.ar    1  UNL1       -0.1478
     29 N          67.1128   92.7960   10.0933 N.ar    1  UNL1       -0.1447
     30 C          67.2503   93.9861    9.1906 C.ar    1  UNL1        0.1446
     31 C          66.3590   95.0720    9.7163 C.ar    1  UNL1        0.1446
     32 N          65.6707   94.5531   10.9439 N.ar    1  UNL1       -0.1447
@<TRIPOS>BOND
     1     1     2    2
     2     2     9    1
     3     9    10   ar
     4    10    11   ar
     5    11    12    1
     6    11    13   ar
     7    13    14   ar
     8    14    15   ar
     9    15    16    1
    10    16    17   ar
    11    17    18   ar
    12    18    19   ar
    13    19    20   ar
    14     2     3   am
    15     3     4    1
    16     4     5    1
    17     5     6    1
    18     6     7    1
    19     7     8    1
    20     8    21    1
    21    21    22    1
    22    22    23   ar
    23    23    24   ar
    24    24    25   ar
    25    25    26   ar
    26    26    28    1
    27    28    29   ar
    28    29    30   ar
    29    30    31   ar
    30    31    32   ar
    31    26    27   ar
    32    15     9   ar
    33    20    16   ar
    34     8     3    1
    35    27    22   ar
    36    32    28   ar
@<TRIPOS>MOLECULE
*****
 32 36 0 0 0
SMALL
GASTEIGER

@<TRIPOS>ATOM
      1 O          61.8399   85.6537   13.1100 O.2     1  UNL1       -0.2698
      2 C          62.4019   84.6113   12.1894 C.2     1  UNL1        0.2507
      3 N          62.6390   84.9360   10.7444 N.am    1  UNL1       -0.2723
      4 C          63.2009   83.8936    9.8238 C.3     1  UNL1        0.1257
      5 C          63.4380   84.2184    8.3786 C.3     1  UNL1        0.1637
      6 O          63.1131   85.5856    7.8542 O.3     1  UNL1       -0.3502
      7 C          62.5512   86.6281    8.7748 C.3     1  UNL1        0.1622
      8 C          62.3141   86.3033   10.2198 C.3     1  UNL1        0.1096
      9 C          62.7268   83.2440   12.7140 C.ar    1  UNL1        0.0752
     10 C          62.5415   82.0409   11.8375 C.ar    1  UNL1        0.0357
     11 C          62.8664   80.6737   12.3619 C.ar    1  UNL1        0.1404
     12 F          62.6811   79.4706   11.4854 F       1  UNL1       -0.2042
     13 C          63.3765   80.5095   13.7629 C.ar    1  UNL1        0.0312
     14 C          63.5617   81.7126   14.6394 C.ar    1  UNL1        0.0234
     15 C          63.2369   83.0798   14.1150 C.ar    1  UNL1        0.1074
     16 N          63.4222   84.2829   14.9915 N.ar    1  UNL1       -0.1477
     17 N          64.5298   85.2888   14.8855 N.ar    1  UNL1       -0.1447
     18 C          64.3245   86.3189   15.9564 C.ar    1  UNL1        0.1446
     19 C          63.0900   85.9496   16.7242 C.ar    1  UNL1        0.1446
     20 N          62.5323   84.6913   16.1279 N.ar    1  UNL1       -0.1447
     21 C          61.7521   87.3458   11.1404 C.3     1  UNL1        0.0488
     22 C          62.3574   88.7177   11.1785 C.ar    1  UNL1       -0.0189
     23 C          62.2907   89.6006    9.9677 C.ar    1  UNL1       -0.0041
     24 C          62.8960   90.9726   10.0057 C.ar    1  UNL1        0.0013
     25 C          63.5680   91.4615   11.2544 C.ar    1  UNL1        0.0209
     26 C          63.6346   90.5785   12.4652 C.ar    1  UNL1        0.1026
     27 C          63.0294   89.2066   12.4272 C.ar    1  UNL1        0.0167
     28 N          64.3066   91.0675   13.7140 N.ar    1  UNL1       -0.1478
     29 N          63.6621   91.2209   15.0598 N.ar    1  UNL1       -0.1447
     30 C          64.6982   91.7372   16.0138 C.ar    1  UNL1        0.1446
     31 C          65.9830   91.9028   15.2576 C.ar    1  UNL1        0.1446
     32 N          65.7410   91.4889   13.8362 N.ar    1  UNL1       -0.1447
@<TRIPOS>BOND
     1     1     2    2
     2     2     9    1
     3     9    10   ar
     4    10    11   ar
     5    11    12    1
     6    11    13   ar
     7    13    14   ar
     8    14    15   ar
     9    15    16    1
    10    16    17   ar
    11    17    18   ar
    12    18    19   ar
    13    19    20   ar
    14     2     3   am
    15     3     4    1
    16     4     5    1
    17     5     6    1
    18     6     7    1
    19     7     8    1
    20     8    21    1
    21    21    22    1
    22    22    23   ar
    23    23    24   ar
    24    24    25   ar
    25    25    26   ar
    26    26    28    1
    27    28    29   ar
    28    29    30   ar
    29    30    31   ar
    30    31    32   ar
    31    26    27   ar
    32    15     9   ar
    33    20    16   ar
    34     8     3    1
    35    27    22   ar
    36    32    28   ar
@<TRIPOS>MOLECULE
*****
 32 36 0 0 0
SMALL
GASTEIGER

@<TRIPOS>ATOM
      1 O          63.6523   88.6640   12.2328 O.2     1  UNL1       -0.2698
      2 C          63.4874   87.6342   13.3109 C.2     1  UNL1        0.2507
      3 N          63.3944   88.0593   14.7463 N.am    1  UNL1       -0.2723
      4 C          63.2296   87.0295   15.8244 C.3     1  UNL1        0.1257
      5 C          63.1365   87.4547   17.2599 C.3     1  UNL1        0.1637
      6 O          63.2083   88.9097   17.6173 O.3     1  UNL1       -0.3502
      7 C          63.3731   89.9395   16.5392 C.3     1  UNL1        0.1622
      8 C          63.4662   89.5144   15.1038 C.3     1  UNL1        0.1096
      9 C          63.4156   86.1791   12.9534 C.ar    1  UNL1        0.0752
     10 C          64.2089   85.1747   13.7356 C.ar    1  UNL1        0.0357
     11 C          64.1371   83.7197   13.3783 C.ar    1  UNL1        0.1404
     12 F          64.9304   82.7152   14.1605 F       1  UNL1       -0.2042
     13 C          63.2722   83.2691   12.2386 C.ar    1  UNL1        0.0312
     14 C          62.4789   84.2736   11.4564 C.ar    1  UNL1        0.0234
     15 C          62.5507   85.7286   11.8138 C.ar    1  UNL1        0.1074
     16 N          61.7574   86.7330   11.0316 N.ar    1  UNL1       -0.1477
     17 N          60.5381   87.4618   11.5132 N.ar    1  UNL1       -0.1447
     18 C          60.0713   88.3643   10.4097 C.ar    1  UNL1        0.1446
     19 C          61.0022   88.1932    9.2460 C.ar    1  UNL1        0.1446
     20 N          62.0443   87.1850    9.6304 N.ar    1  UNL1       -0.1447
     21 C          63.6310   90.5443   14.0257 C.3     1  UNL1        0.0488
     22 C          64.9537   91.2254   13.8350 C.ar    1  UNL1       -0.0189
     23 C          66.0686   90.9844   14.8091 C.ar    1  UNL1       -0.0041
     24 C          67.3915   91.6655   14.6184 C.ar    1  UNL1        0.0013
     25 C          67.5993   92.5876   13.4537 C.ar    1  UNL1        0.0209
     26 C          66.4843   92.8285   12.4796 C.ar    1  UNL1        0.1026
     27 C          65.1616   92.1474   12.6703 C.ar    1  UNL1        0.0167
     28 N          66.6921   93.7506   11.3149 N.ar    1  UNL1       -0.1478
     29 N          67.5875   93.4971   10.1384 N.ar    1  UNL1       -0.1447
     30 C          67.4898   94.6779    9.2186 C.ar    1  UNL1        0.1446
     31 C          66.5341   95.6612    9.8265 C.ar    1  UNL1        0.1446
     32 N          66.0411   95.0882   11.1222 N.ar    1  UNL1       -0.1447
@<TRIPOS>BOND
     1     1     2    2
     2     2     9    1
     3     9    10   ar
     4    10    11   ar
     5    11    12    1
     6    11    13   ar
     7    13    14   ar
     8    14    15   ar
     9    15    16    1
    10    16    17   ar
    11    17    18   ar
    12    18    19   ar
    13    19    20   ar
    14     2     3   am
    15     3     4    1
    16     4     5    1
    17     5     6    1
    18     6     7    1
    19     7     8    1
    20     8    21    1
    21    21    22    1
    22    22    23   ar
    23    23    24   ar
    24    24    25   ar
    25    25    26   ar
    26    26    28    1
    27    28    29   ar
    28    29    30   ar
    29    30    31   ar
    30    31    32   ar
    31    26    27   ar
    32    15     9   ar
    33    20    16   ar
    34     8     3    1
    35    27    22   ar
    36    32    28   ar
@<TRIPOS>MOLECULE
*****
 32 36 0 0 0
SMALL
GASTEIGER

@<TRIPOS>ATOM
      1 O          63.0752   89.5645   10.8339 O.2     1  UNL1       -0.2698
      2 C          62.6926   88.1260   11.0192 C.2     1  UNL1        0.2507
      3 N          63.1100   87.3927   12.2594 N.am    1  UNL1       -0.2723
      4 C          62.7274   85.9542   12.4447 C.3     1  UNL1        0.1257
      5 C          63.1448   85.2209   13.6850 C.3     1  UNL1        0.1637
      6 O          63.9447   85.9261   14.7398 O.3     1  UNL1       -0.3502
      7 C          64.3273   87.3646   14.5545 C.3     1  UNL1        0.1622
      8 C          63.9100   88.0979   13.3143 C.3     1  UNL1        0.1096
      9 C          61.8926   87.4208    9.9643 C.ar    1  UNL1        0.0752
     10 C          62.5524   86.4113    9.0723 C.ar    1  UNL1        0.0357
     11 C          61.7525   85.7062    8.0174 C.ar    1  UNL1        0.1404
     12 F          62.4123   84.6967    7.1254 F       1  UNL1       -0.2042
     13 C          60.2928   86.0104    7.8546 C.ar    1  UNL1        0.0312
     14 C          59.6330   87.0198    8.7466 C.ar    1  UNL1        0.0234
     15 C          60.4329   87.7250    9.8015 C.ar    1  UNL1        0.1074
     16 N          59.7731   88.7345   10.6935 N.ar    1  UNL1       -0.1477
     17 N          59.6875   90.2108   10.4422 N.ar    1  UNL1       -0.1447
     18 C          58.9445   90.8336   11.5868 C.ar    1  UNL1        0.1446
     19 C          58.5708   89.7421   12.5455 C.ar    1  UNL1        0.1446
     20 N          59.0829   88.4448   11.9934 N.ar    1  UNL1       -0.1447
     21 C          64.2926   89.5364   13.1290 C.3     1  UNL1        0.0488
     22 C          64.5400   90.4068   14.3253 C.ar    1  UNL1       -0.0189
     23 C          63.4722   90.5731   15.3655 C.ar    1  UNL1       -0.0041
     24 C          63.7196   91.4435   16.5619 C.ar    1  UNL1        0.0013
     25 C          65.0348   92.1476   16.7179 C.ar    1  UNL1        0.0209
     26 C          66.1027   91.9813   15.6776 C.ar    1  UNL1        0.1026
     27 C          65.8552   91.1109   14.4813 C.ar    1  UNL1        0.0167
     28 N          67.4179   92.6855   15.8337 N.ar    1  UNL1       -0.1478
     29 N          67.6492   94.1614   15.6995 N.ar    1  UNL1       -0.1447
     30 C          69.1070   94.4255   15.9342 C.ar    1  UNL1        0.1446
     31 C          69.7767   93.1126   16.2134 C.ar    1  UNL1        0.1446
     32 N          68.7328   92.0372   16.1513 N.ar    1  UNL1       -0.1447
@<TRIPOS>BOND
     1     1     2    2
     2     2     9    1
     3     9    10   ar
     4    10    11   ar
     5    11    12    1
     6    11    13   ar
     7    13    14   ar
     8    14    15   ar
     9    15    16    1
    10    16    17   ar
    11    17    18   ar
    12    18    19   ar
    13    19    20   ar
    14     2     3   am
    15     3     4    1
    16     4     5    1
    17     5     6    1
    18     6     7    1
    19     7     8    1
    20     8    21    1
    21    21    22    1
    22    22    23   ar
    23    23    24   ar
    24    24    25   ar
    25    25    26   ar
    26    26    28    1
    27    28    29   ar
    28    29    30   ar
    29    30    31   ar
    30    31    32   ar
    31    26    27   ar
    32    15     9   ar
    33    20    16   ar
    34     8     3    1
    35    27    22   ar
    36    32    28   ar
@<TRIPOS>MOLECULE
*****
 32 36 0 0 0
SMALL
GASTEIGER

@<TRIPOS>ATOM
      1 O          62.9395   87.8148   12.6490 O.2     1  UNL1       -0.2698
      2 C          62.7900   89.0195   11.7679 C.2     1  UNL1        0.2507
      3 N          61.7746   89.0200   10.6639 N.am    1  UNL1       -0.2723
      4 C          61.6251   90.2247    9.7829 C.3     1  UNL1        0.1257
      5 C          60.6097   90.2251    8.6788 C.3     1  UNL1        0.1637
      6 O          59.7438   89.0208    8.4558 O.3     1  UNL1       -0.3502
      7 C          59.8932   87.8160    9.3368 C.3     1  UNL1        0.1622
      8 C          60.9086   87.8156   10.4408 C.3     1  UNL1        0.1096
      9 C          63.6560   90.2239   11.9910 C.ar    1  UNL1        0.0752
     10 C          64.0094   91.1172   10.8390 C.ar    1  UNL1        0.0357
     11 C          64.8754   92.3215   11.0620 C.ar    1  UNL1        0.1404
     12 F          65.2289   93.2148    9.9100 F       1  UNL1       -0.2042
     13 C          65.3878   92.6325   12.4370 C.ar    1  UNL1        0.0312
     14 C          65.0343   91.7392   13.5890 C.ar    1  UNL1        0.0234
     15 C          64.1684   90.5349   13.3660 C.ar    1  UNL1        0.1074
     16 N          63.8149   89.6416   14.5180 N.ar    1  UNL1       -0.1477
     17 N          62.7645   89.9127   15.5539 N.ar    1  UNL1       -0.1447
     18 C          62.7501   88.7590   16.5125 C.ar    1  UNL1        0.1446
     19 C          63.7917   87.7749   16.0690 C.ar    1  UNL1        0.1446
     20 N          64.4497   88.3204   14.8363 N.ar    1  UNL1       -0.1447
     21 C          61.0581   86.6108   11.3219 C.3     1  UNL1        0.0488
     22 C          61.9505   85.4807   10.9019 C.ar    1  UNL1       -0.0189
     23 C          62.6572   85.5345    9.5800 C.ar    1  UNL1       -0.0041
     24 C          63.5496   84.4043    9.1600 C.ar    1  UNL1        0.0013
     25 C          63.7353   83.2203   10.0620 C.ar    1  UNL1        0.0209
     26 C          63.0285   83.1665   11.3841 C.ar    1  UNL1        0.1026
     27 C          62.1361   84.2967   11.8040 C.ar    1  UNL1        0.0167
     28 N          63.2141   81.9825   12.2861 N.ar    1  UNL1       -0.1478
     29 N          62.3915   80.7283   12.2752 N.ar    1  UNL1       -0.1447
     30 C          62.9239   79.8154   13.3398 C.ar    1  UNL1        0.1446
     31 C          64.0757   80.5055   14.0086 C.ar    1  UNL1        0.1446
     32 N          64.2551   81.8449   13.3574 N.ar    1  UNL1       -0.1447
@<TRIPOS>BOND
     1     1     2    2
     2     2     9    1
     3     9    10   ar
     4    10    11   ar
     5    11    12    1
     6    11    13   ar
     7    13    14   ar
     8    14    15   ar
     9    15    16    1
    10    16    17   ar
    11    17    18   ar
    12    18    19   ar
    13    19    20   ar
    14     2     3   am
    15     3     4    1
    16     4     5    1
    17     5     6    1
    18     6     7    1
    19     7     8    1
    20     8    21    1
    21    21    22    1
    22    22    23   ar
    23    23    24   ar
    24    24    25   ar
    25    25    26   ar
    26    26    28    1
    27    28    29   ar
    28    29    30   ar
    29    30    31   ar
    30    31    32   ar
    31    26    27   ar
    32    15     9   ar
    33    20    16   ar
    34     8     3    1
    35    27    22   ar
    36    32    28   ar
@<TRIPOS>MOLECULE
*****
 32 36 0 0 0
SMALL
GASTEIGER

@<TRIPOS>ATOM
      1 O          63.4212   88.1409   11.7763 O.2     1  UNL1       -0.2698
      2 C          63.3998   87.4924   13.1286 C.2     1  UNL1        0.2507
      3 N          63.3452   88.3389   14.3657 N.am    1  UNL1       -0.2723
      4 C          63.3238   87.6904   15.7180 C.3     1  UNL1        0.1257
      5 C          63.2692   88.5371   16.9551 C.3     1  UNL1        0.1637
      6 O          63.2360   90.0322   16.8397 O.3     1  UNL1       -0.3502
      7 C          63.2574   90.6808   15.4874 C.3     1  UNL1        0.1622
      8 C          63.3120   89.8342   14.2504 C.3     1  UNL1        0.1096
      9 C          63.4330   85.9971   13.2440 C.ar    1  UNL1        0.0752
     10 C          64.1608   85.3488   14.3841 C.ar    1  UNL1        0.0357
     11 C          64.1940   83.8536   14.4995 C.ar    1  UNL1        0.1404
     12 F          64.9219   83.2053   15.6396 F       1  UNL1       -0.2042
     13 C          63.4994   83.0068   13.4747 C.ar    1  UNL1        0.0312
     14 C          62.7716   83.6551   12.3345 C.ar    1  UNL1        0.0234
     15 C          62.7384   85.1503   12.2191 C.ar    1  UNL1        0.1074
     16 N          62.0106   85.7986   11.0790 N.ar    1  UNL1       -0.1477
     17 N          62.3512   85.6631    9.6245 N.ar    1  UNL1       -0.1447
     18 C          61.3655   86.4769    8.8397 C.ar    1  UNL1        0.1446
     19 C          60.4155   87.1155    9.8092 C.ar    1  UNL1        0.1446
     20 N          60.8142   86.6962   11.1931 N.ar    1  UNL1       -0.1447
     21 C          63.3334   90.4828   12.8980 C.3     1  UNL1        0.0488
     22 C          64.4593   91.4006   12.5241 C.ar    1  UNL1       -0.0189
     23 C          64.5244   91.9842   11.1439 C.ar    1  UNL1       -0.0041
     24 C          65.6503   92.9021   10.7699 C.ar    1  UNL1        0.0013
     25 C          66.7112   93.2364   11.7763 C.ar    1  UNL1        0.0209
     26 C          66.6461   92.6527   13.1566 C.ar    1  UNL1        0.1026
     27 C          65.5202   91.7349   13.5305 C.ar    1  UNL1        0.0167
     28 N          67.7070   92.9870   14.1630 N.ar    1  UNL1       -0.1478
     29 N          69.1162   92.4731   14.1624 N.ar    1  UNL1       -0.1447
     30 C          69.8251   93.0623   15.3457 C.ar    1  UNL1        0.1446
     31 C          68.8540   93.9405   16.0777 C.ar    1  UNL1        0.1446
     32 N          67.5449   93.8939   15.3468 N.ar    1  UNL1       -0.1447
@<TRIPOS>BOND
     1     1     2    2
     2     2     9    1
     3     9    10   ar
     4    10    11   ar
     5    11    12    1
     6    11    13   ar
     7    13    14   ar
     8    14    15   ar
     9    15    16    1
    10    16    17   ar
    11    17    18   ar
    12    18    19   ar
    13    19    20   ar
    14     2     3   am
    15     3     4    1
    16     4     5    1
    17     5     6    1
    18     6     7    1
    19     7     8    1
    20     8    21    1
    21    21    22    1
    22    22    23   ar
    23    23    24   ar
    24    24    25   ar
    25    25    26   ar
    26    26    28    1
    27    28    29   ar
    28    29    30   ar
    29    30    31   ar
    30    31    32   ar
    31    26    27   ar
    32    15     9   ar
    33    20    16   ar
    34     8     3    1
    35    27    22   ar
    36    32    28   ar
@<TRIPOS>MOLECULE
*****
 32 36 0 0 0
SMALL
GASTEIGER

@<TRIPOS>ATOM
      1 O          65.0611   85.6418   13.2604 O.2     1  UNL1       -0.2698
      2 C          63.9866   84.8878   13.9864 C.2     1  UNL1        0.2507
      3 N          63.3440   85.4836   15.2038 N.am    1  UNL1       -0.2723
      4 C          62.2695   84.7296   15.9297 C.3     1  UNL1        0.1257
      5 C          61.6270   85.3254   17.1472 C.3     1  UNL1        0.1637
      6 O          62.0589   86.6752   17.6386 O.3     1  UNL1       -0.3502
      7 C          63.1334   87.4292   16.9127 C.3     1  UNL1        0.1622
      8 C          63.7759   86.8334   15.6953 C.3     1  UNL1        0.1096
      9 C          63.5547   83.5380   13.4949 C.ar    1  UNL1        0.0752
     10 C          63.8946   82.3084   14.2840 C.ar    1  UNL1        0.0357
     11 C          63.4627   80.9587   13.7925 C.ar    1  UNL1        0.1404
     12 F          63.8026   79.7291   14.5816 F       1  UNL1       -0.2042
     13 C          62.6910   80.8384   12.5120 C.ar    1  UNL1        0.0312
     14 C          62.3511   82.0680   11.7228 C.ar    1  UNL1        0.0234
     15 C          62.7829   83.4177   12.2143 C.ar    1  UNL1        0.1074
     16 N          62.4430   84.6473   11.4252 N.ar    1  UNL1       -0.1477
     17 N          62.8825   84.9439   10.0220 N.ar    1  UNL1       -0.1447
     18 C          62.3151   86.2760    9.6303 C.ar    1  UNL1        0.1446
     19 C          61.5249   86.8027   10.7914 C.ar    1  UNL1        0.1446
     20 N          61.6040   85.7961   11.9006 N.ar    1  UNL1       -0.1447
     21 C          64.8504   87.5874   14.9693 C.3     1  UNL1        0.0488
     22 C          64.5160   88.8561   14.2423 C.ar    1  UNL1       -0.0189
     23 C          65.2621   90.1190   14.5558 C.ar    1  UNL1       -0.0041
     24 C          64.9277   91.3878   13.8288 C.ar    1  UNL1        0.0013
     25 C          63.8472   91.3935   12.7884 C.ar    1  UNL1        0.0209
     26 C          63.1011   90.1305   12.4749 C.ar    1  UNL1        0.1026
     27 C          63.4355   88.8618   13.2019 C.ar    1  UNL1        0.0167
     28 N          62.0207   90.1362   11.4344 N.ar    1  UNL1       -0.1478
     29 N          60.5444   90.1793   11.6966 N.ar    1  UNL1       -0.1447
     30 C          59.8381   90.1696   10.3733 C.ar    1  UNL1        0.1446
     31 C          60.8779   90.1205    9.2933 C.ar    1  UNL1        0.1446
     32 N          62.2268   90.0999    9.9490 N.ar    1  UNL1       -0.1447
@<TRIPOS>BOND
     1     1     2    2
     2     2     9    1
     3     9    10   ar
     4    10    11   ar
     5    11    12    1
     6    11    13   ar
     7    13    14   ar
     8    14    15   ar
     9    15    16    1
    10    16    17   ar
    11    17    18   ar
    12    18    19   ar
    13    19    20   ar
    14     2     3   am
    15     3     4    1
    16     4     5    1
    17     5     6    1
    18     6     7    1
    19     7     8    1
    20     8    21    1
    21    21    22    1
    22    22    23   ar
    23    23    24   ar
    24    24    25   ar
    25    25    26   ar
    26    26    28    1
    27    28    29   ar
    28    29    30   ar
    29    30    31   ar
    30    31    32   ar
    31    26    27   ar
    32    15     9   ar
    33    20    16   ar
    34     8     3    1
    35    27    22   ar
    36    32    28   ar
