@<TRIPOS>MOLECULE
*****
 50 57 0 0 0
SMALL
GASTEIGER

@<TRIPOS>ATOM
      1 C          63.9067   94.8560   -4.8470 C.3     1  UNL1        0.1445
      2 C          62.4403   95.1021   -5.0444 C.3     1  UNL1        0.0322
      3 C          61.4696   94.7665   -3.9511 C.3     1  UNL1        0.0049
      4 C          60.0032   95.0126   -4.1485 C.3     1  UNL1        0.0002
      5 C          61.9655   94.1850   -2.6603 C.3     1  UNL1        0.0298
      6 C          63.4320   93.9389   -2.4629 C.3     1  UNL1        0.1418
      7 O          64.4026   94.2744   -3.5562 O.3     1  UNL1       -0.3537
      8 C          63.6244   93.3594   -1.0929 C.3     1  UNL1        0.1373
      9 O          64.9343   92.9618   -0.4798 O.3     1  UNL1       -0.3820
     10 C          62.2769   93.2472   -0.4436 C.3     1  UNL1        0.0272
     11 C          63.4098   92.7694    0.4156 C.3     1  UNL1        0.0025
     12 C          61.8510   92.7464    0.9047 C.3     1  UNL1        0.0023
     13 C          62.8762   92.2361    1.8734 C.3     1  UNL1        0.0001
     14 C          62.4503   91.7353    3.2217 C.3     1  UNL1        0.0001
     15 C          60.9992   91.7447    3.6012 C.3     1  UNL1        0.0023
     16 C          60.5733   91.2439    4.9494 C.3     1  UNL1        0.0251
     17 C          60.6620   90.6707    6.3327 C.3     1  UNL1        0.0024
     18 C          62.0553   91.0354    5.0503 C.3     1  UNL1        0.0024
     19 C          59.1221   91.2534    5.3289 C.3     1  UNL1        0.1177
     20 C          58.0968   91.7636    4.3602 C.3     1  UNL1        0.0296
     21 C          58.5227   92.2644    3.0119 C.3     1  UNL1        0.0025
     22 C          59.9739   92.2550    2.6324 C.3     1  UNL1        0.0002
     23 C          58.9486   92.7653    1.6637 C.3     1  UNL1        0.0000
     24 C          60.3998   92.7559    1.2842 C.3     1  UNL1        0.0001
     25 C          59.3746   93.2661    0.3154 C.3     1  UNL1        0.0000
     26 C          59.8005   93.7669   -1.0328 C.3     1  UNL1        0.0002
     27 C          61.2516   93.7575   -1.4123 C.3     1  UNL1        0.0046
     28 C          60.3453   94.2946   -2.4800 C.3     1  UNL1        0.0002
     29 H          64.7815   92.6154    0.4133 H       1  UNL1        0.2104
     30 C          64.8774   95.1915   -5.9403 C.3     1  UNL1        0.1664
     31 C          66.0884   96.0236   -5.6388 C.3     1  UNL1        0.1156
     32 C          65.3024   96.7999   -4.6242 C.3     1  UNL1        0.0319
     33 C          66.8745   95.2473   -6.6535 C.3     1  UNL1        0.0319
     34 O          67.2995   96.8557   -5.3373 O.3     1  UNL1       -0.3843
     35 H          67.0813   97.5084   -4.6537 H       1  UNL1        0.2103
     36 O          64.6369   94.6948   -7.3351 O.3     1  UNL1       -0.3514
     37 C          64.9900   92.1390   -7.0303 C.3     1  UNL1        0.0346
     38 C          64.1793   93.2843   -7.5605 C.3     1  UNL1        0.1423
     39 O          58.6961   90.7525    6.6772 O.3     1  UNL1       -0.3320
     40 C          59.2305   89.4509    7.1968 C.3     1  UNL1        0.2518
     41 C          60.1129   89.4330    8.4097 C.3     1  UNL1        0.1343
     42 N          60.6472   88.1313    8.9294 N.3     1  UNL1       -0.2651
     43 C          60.2991   86.8475    8.2363 C.3     1  UNL1        0.1048
     44 C          59.4167   86.8652    7.0234 C.3     1  UNL1        0.1621
     45 O          58.8823   88.1670    6.5037 O.3     1  UNL1       -0.3280
     46 C          61.5297   88.1136   10.1422 C.3     1  UNL1        0.0898
     47 C          62.1186   87.0410   11.0099 C.3     1  UNL1        0.0897
     48 N          62.7777   88.0884   11.8575 N.3     1  UNL1       -0.2691
     49 C          63.6601   88.0707   13.0703 C.3     1  UNL1        0.0897
     50 C          62.1888   89.1610   10.9898 C.3     1  UNL1        0.0897
@<TRIPOS>BOND
     1    37    38    1
     2    38    36    1
     3    30    36    1
     4    30     1    1
     5     1     2    1
     6     2     3    1
     7     3     4    1
     8     5     3    1
     9     5     6    1
    10     6     7    1
    11     6     8    1
    12     8     9    1
    13     8    10    1
    14    10    11    1
    15    10    12    1
    16    12    13    1
    17    13    14    1
    18    15    14    1
    19    15    16    1
    20    16    17    1
    21    16    18    1
    22    16    19    1
    23    19    39    1
    24    40    39    1
    25    40    41    1
    26    41    42    1
    27    42    46    1
    28    46    47    1
    29    47    48    1
    30    48    49    1
    31    48    50    1
    32    42    43    1
    33    43    44    1
    34    44    45    1
    35    19    20    1
    36    20    21    1
    37    22    21    1
    38    22    23    1
    39    24    23    1
    40    24    25    1
    41    25    26    1
    42    26    27    1
    43    27    28    1
    44    30    31    1
    45    31    32    1
    46    31    33    1
    47    31    34    1
    48     7     1    1
    49    27    10    1
    50    27     5    1
    51    24    12    1
    52    22    15    1
    53    45    40    1
    54    24    22    1
    55    50    46    1
    56     9    29    1
    57    34    35    1
