@<TRIPOS>MOLECULE
*****
 30 34 0 0 0
SMALL
GASTEIGER

@<TRIPOS>ATOM
      1 C          62.9856   90.4373   11.8732 C.ar    1  UNL1        0.1670
      2 N          62.9766   88.9931   11.4680 N.ar    1  UNL1       -0.2221
      3 C          61.9142   88.8111   10.4247 C.ar    1  UNL1        0.1305
      4 C          61.4528   87.6048    9.6619 C.ar    1  UNL1        0.0765
      5 C          60.3439   87.7302    8.6596 C.ar    1  UNL1        0.0664
      6 BR         59.8825   86.5238    7.8968 Br      1  UNL1       -0.0461
      7 C          59.6964   89.0618    8.4201 C.ar    1  UNL1        0.0816
      8 N          60.1578   90.2681    9.1829 N.ar    1  UNL1       -0.3357
      9 C          61.2667   90.1428   10.1852 C.ar    1  UNL1        0.1613
     10 N          61.9289   91.1478   11.0804 N.ar    1  UNL1       -0.2080
     11 H          59.7329   91.1422    9.0257 H       1  UNL1        0.1675
     12 C          66.7803   93.3550   14.1021 C.3     1  UNL1        0.1538
     13 N          65.6365   92.4026   13.9168 N.ar    1  UNL1       -0.2472
     14 C          64.9900   92.0443   12.6115 C.ar    1  UNL1        0.0997
     15 C          63.8922   91.0614   12.8923 C.ar    1  UNL1        0.0754
     16 C          63.8602   90.8121   14.3711 C.ar    1  UNL1        0.1247
     17 N          64.9382   91.6410   15.0043 N.ar    1  UNL1       -0.1675
     18 N          62.1003   86.2730    9.9014 N.pl3   1  UNL1       -0.3030
     19 C          62.8997   85.6211    8.8125 C.3     1  UNL1        0.1082
     20 C          63.5471   84.2894    9.0520 C.3     1  UNL1        0.0941
     21 N          63.3951   83.6096   10.3805 N.3     1  UNL1       -0.2659
     22 C          62.5956   84.2615   11.4694 C.3     1  UNL1        0.0941
     23 C          61.9482   85.5933   11.2299 C.3     1  UNL1        0.1082
     24 C          64.0425   82.2779   10.6200 C.3     1  UNL1        0.1008
     25 C          63.6192   81.4375   11.7882 C.ar    1  UNL1        0.0130
     26 C          62.7070   80.2655   11.5776 C.ar    1  UNL1        0.0002
     27 C          62.2837   79.4251   12.7457 C.ar    1  UNL1        0.0204
     28 C          62.7727   79.7567   14.1245 C.ar    1  UNL1        0.0989
     29 N          63.6849   80.9286   14.3351 N.ar    1  UNL1       -0.2426
     30 C          64.1082   81.7690   13.1670 C.ar    1  UNL1        0.0959
@<TRIPOS>BOND
     1    12    13    1
     2    13    14   ar
     3    14    15   ar
     4    15     1    1
     5     1     2   ar
     6     2     3   ar
     7     3     4   ar
     8     4    18    1
     9    18    19    1
    10    19    20    1
    11    20    21    1
    12    21    24    1
    13    24    25    1
    14    25    26   ar
    15    26    27   ar
    16    27    28   ar
    17    28    29   ar
    18    29    30   ar
    19    21    22    1
    20    22    23    1
    21     4     5   ar
    22     5     6    1
    23     5     7   ar
    24     7     8   ar
    25     8     9   ar
    26     9    10   ar
    27    15    16   ar
    28    16    17   ar
    29    17    13   ar
    30    10     1   ar
    31     9     3    1
    32    23    18    1
    33    30    25   ar
    34     8    11    1
@<TRIPOS>MOLECULE
*****
 30 34 0 0 0
SMALL
GASTEIGER

@<TRIPOS>ATOM
      1 C          62.5348   84.6584   12.0628 C.ar    1  UNL1        0.1670
      2 N          62.9254   86.0526   12.4547 N.ar    1  UNL1       -0.2221
      3 C          62.3881   86.9933   11.4172 C.ar    1  UNL1        0.1305
      4 C          62.4635   88.4851   11.2797 C.ar    1  UNL1        0.0765
      5 C          61.8162   89.1640   10.1092 C.ar    1  UNL1        0.0664
      6 BR         61.8916   90.6559    9.9717 Br      1  UNL1       -0.0461
      7 C          61.0936   88.3513    9.0762 C.ar    1  UNL1        0.0816
      8 N          61.0182   86.8595    9.2137 N.ar    1  UNL1       -0.3357
      9 C          61.6654   86.1805   10.3842 C.ar    1  UNL1        0.1613
     10 N          61.7561   84.7374   10.7832 N.ar    1  UNL1       -0.2080
     11 H          60.5439   86.3260    8.5357 H       1  UNL1        0.1675
     12 C          62.6939   79.6026   13.5774 C.3     1  UNL1        0.1538
     13 N          62.9380   81.0811   13.5142 N.ar    1  UNL1       -0.2472
     14 C          62.3552   82.0288   12.5080 C.ar    1  UNL1        0.0997
     15 C          62.8649   83.4051   12.8180 C.ar    1  UNL1        0.0754
     16 C          63.7627   83.3081   14.0157 C.ar    1  UNL1        0.1247
     17 N          63.8079   81.8718   14.4460 N.ar    1  UNL1       -0.1675
     18 N          63.1861   89.2980   12.3128 N.pl3   1  UNL1       -0.3030
     19 C          63.6143   88.6626   13.6023 C.3     1  UNL1        0.1082
     20 C          64.3369   89.4756   14.6352 C.3     1  UNL1        0.0941
     21 N          64.6313   90.9238   14.3786 N.3     1  UNL1       -0.2659
     22 C          64.2032   91.5592   13.0890 C.3     1  UNL1        0.0941
     23 C          63.4806   90.7462   12.0561 C.3     1  UNL1        0.1082
     24 C          65.3540   91.7368   15.4115 C.3     1  UNL1        0.1008
     25 C          66.7834   92.1335   15.1885 C.ar    1  UNL1        0.0130
     26 C          67.5192   92.9093   16.2404 C.ar    1  UNL1        0.0002
     27 C          68.9485   93.3060   16.0174 C.ar    1  UNL1        0.0204
     28 C          69.6419   92.9268   14.7425 C.ar    1  UNL1        0.0989
     29 N          68.9061   92.1509   13.6906 N.ar    1  UNL1       -0.2426
     30 C          67.4768   91.7542   13.9136 C.ar    1  UNL1        0.0959
@<TRIPOS>BOND
     1    12    13    1
     2    13    14   ar
     3    14    15   ar
     4    15     1    1
     5     1     2   ar
     6     2     3   ar
     7     3     4   ar
     8     4    18    1
     9    18    19    1
    10    19    20    1
    11    20    21    1
    12    21    24    1
    13    24    25    1
    14    25    26   ar
    15    26    27   ar
    16    27    28   ar
    17    28    29   ar
    18    29    30   ar
    19    21    22    1
    20    22    23    1
    21     4     5   ar
    22     5     6    1
    23     5     7   ar
    24     7     8   ar
    25     8     9   ar
    26     9    10   ar
    27    15    16   ar
    28    16    17   ar
    29    17    13   ar
    30    10     1   ar
    31     9     3    1
    32    23    18    1
    33    30    25   ar
    34     8    11    1
@<TRIPOS>MOLECULE
*****
 30 34 0 0 0
SMALL
GASTEIGER

@<TRIPOS>ATOM
      1 C          63.0649   85.0747   13.4259 C.ar    1  UNL1        0.1670
      2 N          62.4811   85.9570   12.3626 N.ar    1  UNL1       -0.2221
      3 C          62.9737   87.3541   12.5977 C.ar    1  UNL1        0.1305
      4 C          62.7282   88.6411   11.8674 C.ar    1  UNL1        0.0765
      5 C          63.3710   89.9093   12.3457 C.ar    1  UNL1        0.0664
      6 BR         63.1255   91.1963   11.6153 Br      1  UNL1       -0.0461
      7 C          64.2592   89.8904   13.5542 C.ar    1  UNL1        0.0816
      8 N          64.5047   88.6034   14.2845 N.ar    1  UNL1       -0.3357
      9 C          63.8620   87.3353   13.8063 C.ar    1  UNL1        0.1613
     10 N          63.9183   85.9265   14.3182 N.ar    1  UNL1       -0.2080
     11 H          65.0877   88.5910   15.0778 H       1  UNL1        0.1675
     12 C          62.6304   79.9278   12.3297 C.3     1  UNL1        0.1538
     13 N          62.6358   81.2336   13.0676 N.ar    1  UNL1       -0.2472
     14 C          62.9487   82.5776   12.4792 C.ar    1  UNL1        0.0997
     15 C          62.8355   83.5994   13.5715 C.ar    1  UNL1        0.0754
     16 C          62.4528   82.8872   14.8349 C.ar    1  UNL1        0.1247
     17 N          62.3294   81.4250   14.5235 N.ar    1  UNL1       -0.1675
     18 N          61.8400   88.6601   10.6588 N.pl3   1  UNL1       -0.3030
     19 C          61.8759   87.5208    9.6837 C.3     1  UNL1        0.1082
     20 C          60.9876   87.5398    8.4751 C.3     1  UNL1        0.0941
     21 N          60.0635   88.6981    8.2417 N.3     1  UNL1       -0.2659
     22 C          60.0276   89.8373    9.2167 C.3     1  UNL1        0.0941
     23 C          60.9159   89.8183   10.4253 C.3     1  UNL1        0.1082
     24 C          59.1752   88.7171    7.0331 C.3     1  UNL1        0.1008
     25 C          59.1748   89.9082    6.1213 C.ar    1  UNL1        0.0130
     26 C          60.4602   90.3907    5.5171 C.ar    1  UNL1        0.0002
     27 C          60.4599   91.5817    4.6053 C.ar    1  UNL1        0.0204
     28 C          59.1741   92.2903    4.2977 C.ar    1  UNL1        0.0989
     29 N          57.8887   91.8079    4.9019 N.ar    1  UNL1       -0.2426
     30 C          57.8890   90.6168    5.8137 C.ar    1  UNL1        0.0959
@<TRIPOS>BOND
     1    12    13    1
     2    13    14   ar
     3    14    15   ar
     4    15     1    1
     5     1     2   ar
     6     2     3   ar
     7     3     4   ar
     8     4    18    1
     9    18    19    1
    10    19    20    1
    11    20    21    1
    12    21    24    1
    13    24    25    1
    14    25    26   ar
    15    26    27   ar
    16    27    28   ar
    17    28    29   ar
    18    29    30   ar
    19    21    22    1
    20    22    23    1
    21     4     5   ar
    22     5     6    1
    23     5     7   ar
    24     7     8   ar
    25     8     9   ar
    26     9    10   ar
    27    15    16   ar
    28    16    17   ar
    29    17    13   ar
    30    10     1   ar
    31     9     3    1
    32    23    18    1
    33    30    25   ar
    34     8    11    1
@<TRIPOS>MOLECULE
*****
 30 34 0 0 0
SMALL
GASTEIGER

@<TRIPOS>ATOM
      1 C          63.5312   85.6911   13.8396 C.ar    1  UNL1        0.1670
      2 N          62.8730   86.4674   12.7377 N.ar    1  UNL1       -0.2221
      3 C          63.3084   87.8980   12.8546 C.ar    1  UNL1        0.1305
      4 C          62.9803   89.1164   12.0435 C.ar    1  UNL1        0.0765
      5 C          63.5796   90.4427   12.4066 C.ar    1  UNL1        0.0664
      6 BR         63.2515   91.6612   11.5955 Br      1  UNL1       -0.0461
      7 C          64.5069   90.5506   13.5806 C.ar    1  UNL1        0.0816
      8 N          64.8350   89.3322   14.3917 N.ar    1  UNL1       -0.3357
      9 C          64.2358   88.0059   14.0286 C.ar    1  UNL1        0.1613
     10 N          64.3734   86.6419   14.6374 N.ar    1  UNL1       -0.2080
     11 H          65.4436   89.4030   15.1622 H       1  UNL1        0.1675
     12 C          61.8345   80.6980   13.5736 C.3     1  UNL1        0.1538
     13 N          62.5947   81.9267   13.9760 N.ar    1  UNL1       -0.2472
     14 C          62.4105   83.3030   13.4084 C.ar    1  UNL1        0.0997
     15 C          63.3746   84.2219   14.0983 C.ar    1  UNL1        0.0754
     16 C          64.1548   83.4137   15.0923 C.ar    1  UNL1        0.1247
     17 N          63.6728   81.9952   15.0168 N.ar    1  UNL1       -0.1675
     18 N          62.0530   89.0086   10.8694 N.pl3   1  UNL1       -0.3030
     19 C          60.9770   90.0338   10.6669 C.3     1  UNL1        0.1082
     20 C          60.0497   89.9259    9.4928 C.3     1  UNL1        0.0941
     21 N          60.1985   88.7928    8.5212 N.3     1  UNL1       -0.2659
     22 C          61.2746   87.7676    8.7237 C.3     1  UNL1        0.0941
     23 C          62.2018   87.8755    9.8978 C.3     1  UNL1        0.1082
     24 C          59.2713   88.6849    7.3471 C.3     1  UNL1        0.1008
     25 C          59.1765   89.8107    6.3603 C.ar    1  UNL1        0.0130
     26 C          57.8328   90.3244    5.9353 C.ar    1  UNL1        0.0002
     27 C          57.7380   91.4501    4.9486 C.ar    1  UNL1        0.0204
     28 C          58.9869   92.0622    4.3868 C.ar    1  UNL1        0.0989
     29 N          60.3306   91.5485    4.8118 N.ar    1  UNL1       -0.2426
     30 C          60.4254   90.4228    5.7985 C.ar    1  UNL1        0.0959
@<TRIPOS>BOND
     1    12    13    1
     2    13    14   ar
     3    14    15   ar
     4    15     1    1
     5     1     2   ar
     6     2     3   ar
     7     3     4   ar
     8     4    18    1
     9    18    19    1
    10    19    20    1
    11    20    21    1
    12    21    24    1
    13    24    25    1
    14    25    26   ar
    15    26    27   ar
    16    27    28   ar
    17    28    29   ar
    18    29    30   ar
    19    21    22    1
    20    22    23    1
    21     4     5   ar
    22     5     6    1
    23     5     7   ar
    24     7     8   ar
    25     8     9   ar
    26     9    10   ar
    27    15    16   ar
    28    16    17   ar
    29    17    13   ar
    30    10     1   ar
    31     9     3    1
    32    23    18    1
    33    30    25   ar
    34     8    11    1
@<TRIPOS>MOLECULE
*****
 30 34 0 0 0
SMALL
GASTEIGER

@<TRIPOS>ATOM
      1 C          61.2653   92.1717    3.2171 C.ar    1  UNL1        0.1670
      2 N          60.9457   92.8755    1.9316 N.ar    1  UNL1       -0.2221
      3 C          62.2405   93.2648    1.2821 C.ar    1  UNL1        0.1305
      4 C          62.5446   93.9813   -0.0001 C.ar    1  UNL1        0.0765
      5 C          63.9685   94.2345   -0.3983 C.ar    1  UNL1        0.0664
      6 BR         64.2726   94.9510   -1.6807 Br      1  UNL1       -0.0461
      7 C          65.0882   93.7713    0.4857 C.ar    1  UNL1        0.0816
      8 N          64.7841   93.0548    1.7680 N.ar    1  UNL1       -0.3357
      9 C          63.3603   92.8016    2.1662 C.ar    1  UNL1        0.1613
     10 N          62.7576   92.1260    3.3621 N.ar    1  UNL1       -0.2080
     11 H          65.5191   92.7508    2.3482 H       1  UNL1        0.1675
     12 C          59.0473   89.2464    7.0124 C.3     1  UNL1        0.1538
     13 N          59.2482   90.2672    5.9319 N.ar    1  UNL1       -0.2472
     14 C          60.5157   90.5011    5.1645 C.ar    1  UNL1        0.0997
     15 C          60.2677   91.6118    4.1874 C.ar    1  UNL1        0.0754
     16 C          58.8470   92.0643    4.3507 C.ar    1  UNL1        0.1247
     17 N          58.2169   91.2333    5.4289 N.ar    1  UNL1       -0.1675
     18 N          61.4248   94.4445   -0.8843 N.pl3   1  UNL1       -0.3030
     19 C          60.8058   95.7933   -0.6661 C.3     1  UNL1        0.1082
     20 C          59.6861   96.2565   -1.5502 C.3     1  UNL1        0.0941
     21 N          59.1855   95.3709   -2.6525 N.3     1  UNL1       -0.2659
     22 C          59.8045   94.0221   -2.8707 C.3     1  UNL1        0.0941
     23 C          60.9242   93.5589   -1.9865 C.3     1  UNL1        0.1082
     24 C          58.0658   95.8340   -3.5366 C.3     1  UNL1        0.1008
     25 C          56.6476   95.7556   -3.0541 C.ar    1  UNL1        0.0130
     26 C          56.1949   94.5769   -2.2444 C.ar    1  UNL1        0.0002
     27 C          54.7768   94.4984   -1.7619 C.ar    1  UNL1        0.0204
     28 C          53.8114   95.5988   -2.0892 C.ar    1  UNL1        0.0989
     29 N          54.2640   96.7775   -2.8989 N.ar    1  UNL1       -0.2426
     30 C          55.6821   96.8560   -3.3814 C.ar    1  UNL1        0.0959
@<TRIPOS>BOND
     1    12    13    1
     2    13    14   ar
     3    14    15   ar
     4    15     1    1
     5     1     2   ar
     6     2     3   ar
     7     3     4   ar
     8     4    18    1
     9    18    19    1
    10    19    20    1
    11    20    21    1
    12    21    24    1
    13    24    25    1
    14    25    26   ar
    15    26    27   ar
    16    27    28   ar
    17    28    29   ar
    18    29    30   ar
    19    21    22    1
    20    22    23    1
    21     4     5   ar
    22     5     6    1
    23     5     7   ar
    24     7     8   ar
    25     8     9   ar
    26     9    10   ar
    27    15    16   ar
    28    16    17   ar
    29    17    13   ar
    30    10     1   ar
    31     9     3    1
    32    23    18    1
    33    30    25   ar
    34     8    11    1
@<TRIPOS>MOLECULE
*****
 30 34 0 0 0
SMALL
GASTEIGER

@<TRIPOS>ATOM
      1 C          64.3012   91.3064   12.3138 C.ar    1  UNL1        0.1670
      2 N          64.0396   89.8310   12.3835 N.ar    1  UNL1       -0.2221
      3 C          62.9415   89.5087   11.4139 C.ar    1  UNL1        0.1305
      4 C          62.2675   88.2180   11.0537 C.ar    1  UNL1        0.0765
      5 C          61.1763   88.2035   10.0244 C.ar    1  UNL1        0.0664
      6 BR         60.5022   86.9127    9.6642 Br      1  UNL1       -0.0461
      7 C          60.7593   89.4796    9.3554 C.ar    1  UNL1        0.0816
      8 N          61.4333   90.7703    9.7156 N.ar    1  UNL1       -0.3357
      9 C          62.5244   90.7848   10.7448 C.ar    1  UNL1        0.1613
     10 N          63.3648   91.8959   11.3010 N.ar    1  UNL1       -0.2080
     11 H          61.1596   91.6078    9.2765 H       1  UNL1        0.1675
     12 C          67.5205   92.7778   16.2319 C.3     1  UNL1        0.1538
     13 N          66.8001   92.7364   14.9170 N.ar    1  UNL1       -0.2472
     14 C          65.7761   91.7208   14.5042 C.ar    1  UNL1        0.0997
     15 C          65.3203   92.0600   13.1160 C.ar    1  UNL1        0.0754
     16 C          66.0625   93.2851   12.6707 C.ar    1  UNL1        0.1247
     17 N          66.9771   93.7031   13.7837 N.ar    1  UNL1       -0.1675
     18 N          62.6845   86.9418   11.7227 N.pl3   1  UNL1       -0.3030
     19 C          63.2784   86.9762   13.0996 C.3     1  UNL1        0.1082
     20 C          63.6954   85.6999   13.7685 C.3     1  UNL1        0.0941
     21 N          63.5184   84.3895   13.0605 N.3     1  UNL1       -0.2659
     22 C          62.9244   84.3551   11.6835 C.3     1  UNL1        0.0941
     23 C          62.5075   85.6314   11.0146 C.3     1  UNL1        0.1082
     24 C          63.9353   83.1133   13.7294 C.3     1  UNL1        0.1008
     25 C          63.0078   81.9344   13.7402 C.ar    1  UNL1        0.0130
     26 C          63.4081   80.6588   13.0600 C.ar    1  UNL1        0.0002
     27 C          62.4807   79.4800   13.0708 C.ar    1  UNL1        0.0204
     28 C          61.1529   79.5767   13.7619 C.ar    1  UNL1        0.0989
     29 N          60.7526   80.8522   14.4421 N.ar    1  UNL1       -0.2426
     30 C          61.6800   82.0311   14.4313 C.ar    1  UNL1        0.0959
@<TRIPOS>BOND
     1    12    13    1
     2    13    14   ar
     3    14    15   ar
     4    15     1    1
     5     1     2   ar
     6     2     3   ar
     7     3     4   ar
     8     4    18    1
     9    18    19    1
    10    19    20    1
    11    20    21    1
    12    21    24    1
    13    24    25    1
    14    25    26   ar
    15    26    27   ar
    16    27    28   ar
    17    28    29   ar
    18    29    30   ar
    19    21    22    1
    20    22    23    1
    21     4     5   ar
    22     5     6    1
    23     5     7   ar
    24     7     8   ar
    25     8     9   ar
    26     9    10   ar
    27    15    16   ar
    28    16    17   ar
    29    17    13   ar
    30    10     1   ar
    31     9     3    1
    32    23    18    1
    33    30    25   ar
    34     8    11    1
@<TRIPOS>MOLECULE
*****
 30 34 0 0 0
SMALL
GASTEIGER

@<TRIPOS>ATOM
      1 C          59.8250   89.3293    7.3242 C.ar    1  UNL1        0.1670
      2 N          60.8016   89.7351    8.3879 N.ar    1  UNL1       -0.2221
      3 C          61.0906   88.5317    9.2353 C.ar    1  UNL1        0.1305
      4 C          61.9773   88.3341   10.4289 C.ar    1  UNL1        0.0765
      5 C          62.0660   86.9869   11.0826 C.ar    1  UNL1        0.0664
      6 BR         62.9528   86.7893   12.2762 Br      1  UNL1       -0.0461
      7 C          61.2681   85.8373   10.5426 C.ar    1  UNL1        0.0816
      8 N          60.3814   86.0348    9.3490 N.ar    1  UNL1       -0.3357
      9 C          60.2926   87.3820    8.6954 C.ar    1  UNL1        0.1613
     10 N          59.5104   87.8750    7.5142 N.ar    1  UNL1       -0.2080
     11 H          59.8577   85.2803    8.9946 H       1  UNL1        0.1675
     12 C          59.4511   92.6717    3.2538 C.3     1  UNL1        0.1538
     13 N          59.0899   91.7575    4.3867 N.ar    1  UNL1       -0.2472
     14 C          60.0550   91.0106    5.2590 C.ar    1  UNL1        0.0997
     15 C          59.2618   90.2211    6.2577 C.ar    1  UNL1        0.0754
     16 C          57.8065   90.4799    6.0027 C.ar    1  UNL1        0.1247
     17 N          57.7002   91.4295    4.8464 N.ar    1  UNL1       -0.1675
     18 N          62.7753   89.4838   10.9690 N.pl3   1  UNL1       -0.3030
     19 C          63.1025   89.5483   12.4314 C.3     1  UNL1        0.1082
     20 C          63.9005   90.6979   12.9714 C.3     1  UNL1        0.0941
     21 N          64.3713   91.7829   12.0489 N.3     1  UNL1       -0.2659
     22 C          64.0442   91.7184   10.5865 C.3     1  UNL1        0.0941
     23 C          63.2462   90.5688   10.0465 C.3     1  UNL1        0.1082
     24 C          65.1693   92.9326   12.5889 C.3     1  UNL1        0.1008
     25 C          66.3083   92.6780   13.5313 C.ar    1  UNL1        0.0130
     26 C          66.1274   92.9000   15.0037 C.ar    1  UNL1        0.0002
     27 C          67.2662   92.6454   15.9461 C.ar    1  UNL1        0.0204
     28 C          68.5860   92.1688   15.4161 C.ar    1  UNL1        0.0989
     29 N          68.7669   91.9467   13.9437 N.ar    1  UNL1       -0.2426
     30 C          67.6281   92.2013   13.0013 C.ar    1  UNL1        0.0959
@<TRIPOS>BOND
     1    12    13    1
     2    13    14   ar
     3    14    15   ar
     4    15     1    1
     5     1     2   ar
     6     2     3   ar
     7     3     4   ar
     8     4    18    1
     9    18    19    1
    10    19    20    1
    11    20    21    1
    12    21    24    1
    13    24    25    1
    14    25    26   ar
    15    26    27   ar
    16    27    28   ar
    17    28    29   ar
    18    29    30   ar
    19    21    22    1
    20    22    23    1
    21     4     5   ar
    22     5     6    1
    23     5     7   ar
    24     7     8   ar
    25     8     9   ar
    26     9    10   ar
    27    15    16   ar
    28    16    17   ar
    29    17    13   ar
    30    10     1   ar
    31     9     3    1
    32    23    18    1
    33    30    25   ar
    34     8    11    1
@<TRIPOS>MOLECULE
*****
 30 34 0 0 0
SMALL
GASTEIGER

@<TRIPOS>ATOM
      1 C          59.7239   89.3843    7.2252 C.ar    1  UNL1        0.1670
      2 N          60.7310   89.7645    8.2698 N.ar    1  UNL1       -0.2221
      3 C          60.9809   88.5626    9.1318 C.ar    1  UNL1        0.1305
      4 C          61.8747   88.3456   10.3167 C.ar    1  UNL1        0.0765
      5 C          61.9159   87.0056   10.9897 C.ar    1  UNL1        0.0664
      6 BR         62.8097   86.7886   12.1747 Br      1  UNL1       -0.0461
      7 C          61.0633   85.8828   10.4778 C.ar    1  UNL1        0.0816
      8 N          60.1695   86.0997    9.2929 N.ar    1  UNL1       -0.3357
      9 C          60.1283   87.4396    8.6199 C.ar    1  UNL1        0.1613
     10 N          59.3514   87.9475    7.4416 N.ar    1  UNL1       -0.2080
     11 H          59.6098   85.3627    8.9570 H       1  UNL1        0.1675
     12 C          59.4385   92.7407    3.1591 C.3     1  UNL1        0.1538
     13 N          59.0529   91.8260    4.2835 N.ar    1  UNL1       -0.2472
     14 C          59.9987   91.0697    5.1688 C.ar    1  UNL1        0.0997
     15 C          59.1841   90.2832    6.1525 C.ar    1  UNL1        0.0754
     16 C          57.7349   90.5533    5.8753 C.ar    1  UNL1        0.1247
     17 N          57.6538   91.5068    4.7202 N.ar    1  UNL1       -0.1675
     18 N          62.7274   89.4685   10.8287 N.pl3   1  UNL1       -0.3030
     19 C          63.1089   90.5965    9.9166 C.3     1  UNL1        0.1082
     20 C          63.9616   91.7194   10.4286 C.3     1  UNL1        0.0941
     21 N          64.4327   91.7141   11.8527 N.3     1  UNL1       -0.2659
     22 C          64.0512   90.5861   12.7648 C.3     1  UNL1        0.0941
     23 C          63.1985   89.4633   12.2527 C.3     1  UNL1        0.1082
     24 C          65.2854   92.8370   12.3647 C.3     1  UNL1        0.1008
     25 C          66.1069   93.6509   11.4092 C.ar    1  UNL1        0.0130
     26 C          65.8556   95.1231   11.2698 C.ar    1  UNL1        0.0002
     27 C          66.6770   95.9370   10.3143 C.ar    1  UNL1        0.0204
     28 C          67.7497   95.2786    9.4983 C.ar    1  UNL1        0.0989
     29 N          68.0009   93.8064    9.6378 N.ar    1  UNL1       -0.2426
     30 C          67.1795   92.9925   10.5932 C.ar    1  UNL1        0.0959
@<TRIPOS>BOND
     1    12    13    1
     2    13    14   ar
     3    14    15   ar
     4    15     1    1
     5     1     2   ar
     6     2     3   ar
     7     3     4   ar
     8     4    18    1
     9    18    19    1
    10    19    20    1
    11    20    21    1
    12    21    24    1
    13    24    25    1
    14    25    26   ar
    15    26    27   ar
    16    27    28   ar
    17    28    29   ar
    18    29    30   ar
    19    21    22    1
    20    22    23    1
    21     4     5   ar
    22     5     6    1
    23     5     7   ar
    24     7     8   ar
    25     8     9   ar
    26     9    10   ar
    27    15    16   ar
    28    16    17   ar
    29    17    13   ar
    30    10     1   ar
    31     9     3    1
    32    23    18    1
    33    30    25   ar
    34     8    11    1
@<TRIPOS>MOLECULE
*****
 30 34 0 0 0
SMALL
GASTEIGER

@<TRIPOS>ATOM
      1 C          61.2631   92.1749    3.2134 C.ar    1  UNL1        0.1670
      2 N          60.9425   92.8129    1.8942 N.ar    1  UNL1       -0.2221
      3 C          62.2340   93.2280    1.2541 C.ar    1  UNL1        0.1305
      4 C          62.5357   93.9041   -0.0504 C.ar    1  UNL1        0.0765
      5 C          63.9564   94.1987   -0.4315 C.ar    1  UNL1        0.0664
      6 BR         64.2582   94.8748   -1.7361 Br      1  UNL1       -0.0461
      7 C          65.0751   93.8172    0.4920 C.ar    1  UNL1        0.0816
      8 N          64.7733   93.1411    1.7965 N.ar    1  UNL1       -0.3357
      9 C          63.3528   92.8465    2.1775 C.ar    1  UNL1        0.1613
     10 N          62.7527   92.1956    3.3885 N.ar    1  UNL1       -0.2080
     11 H          65.5076   92.8907    2.4026 H       1  UNL1        0.1675
     12 C          59.0530   89.2371    7.0035 C.3     1  UNL1        0.1538
     13 N          59.2528   90.2641    5.9287 N.ar    1  UNL1       -0.2472
     14 C          60.5165   90.4955    5.1543 C.ar    1  UNL1        0.0997
     15 C          60.2687   91.6145    4.1866 C.ar    1  UNL1        0.0754
     16 C          58.8520   92.0746    4.3628 C.ar    1  UNL1        0.1247
     17 N          58.2241   91.2401    5.4395 N.ar    1  UNL1       -0.1675
     18 N          61.4170   94.2856   -0.9740 N.pl3   1  UNL1       -0.3030
     19 C          60.9355   95.7054   -1.0224 C.3     1  UNL1        0.1082
     20 C          59.8168   96.0869   -1.9459 C.3     1  UNL1        0.0941
     21 N          59.1796   95.0486   -2.8210 N.3     1  UNL1       -0.2659
     22 C          59.6610   93.6288   -2.7726 C.3     1  UNL1        0.0941
     23 C          60.7798   93.2473   -1.8491 C.3     1  UNL1        0.1082
     24 C          58.0609   95.4300   -3.7446 C.3     1  UNL1        0.1008
     25 C          57.6176   94.4805   -4.8180 C.ar    1  UNL1        0.0130
     26 C          56.4272   93.5961   -4.5922 C.ar    1  UNL1        0.0002
     27 C          55.9839   92.6467   -5.6654 C.ar    1  UNL1        0.0204
     28 C          56.7310   92.5815   -6.9645 C.ar    1  UNL1        0.0989
     29 N          57.9213   93.4659   -7.1903 N.ar    1  UNL1       -0.2426
     30 C          58.3647   94.4154   -6.1170 C.ar    1  UNL1        0.0959
@<TRIPOS>BOND
     1    12    13    1
     2    13    14   ar
     3    14    15   ar
     4    15     1    1
     5     1     2   ar
     6     2     3   ar
     7     3     4   ar
     8     4    18    1
     9    18    19    1
    10    19    20    1
    11    20    21    1
    12    21    24    1
    13    24    25    1
    14    25    26   ar
    15    26    27   ar
    16    27    28   ar
    17    28    29   ar
    18    29    30   ar
    19    21    22    1
    20    22    23    1
    21     4     5   ar
    22     5     6    1
    23     5     7   ar
    24     7     8   ar
    25     8     9   ar
    26     9    10   ar
    27    15    16   ar
    28    16    17   ar
    29    17    13   ar
    30    10     1   ar
    31     9     3    1
    32    23    18    1
    33    30    25   ar
    34     8    11    1
