@<TRIPOS>MOLECULE
*****
 38 43 0 0 0
SMALL
GASTEIGER

@<TRIPOS>ATOM
      1 C          59.8065   90.1207    6.1424 C.2     1  UNL1        0.2495
      2 O          58.4411   90.3112    5.5513 O.2     1  UNL1       -0.2698
      3 N          60.9973   90.7742    5.5060 N.am    1  UNL1       -0.2804
      4 H          61.8934   90.6492    5.8940 H       1  UNL1        0.1552
      5 C          60.5052   86.7440   11.0526 C.3     1  UNL1        0.0317
      6 C          60.3306   87.5882    9.8251 C.ar    1  UNL1       -0.0142
      7 C          59.5013   87.0853    8.6808 C.ar    1  UNL1       -0.0035
      8 C          59.3266   87.9294    7.4533 C.ar    1  UNL1        0.0042
      9 C          59.9812   89.2765    7.3699 C.ar    1  UNL1        0.0543
     10 C          60.8105   89.7794    8.5143 C.ar    1  UNL1        0.0124
     11 C          60.9851   88.9352    9.7418 C.ar    1  UNL1        0.0382
     12 C          61.8144   89.4381   10.8861 C.1     1  UNL1       -0.0585
     13 C          62.6436   89.9409   12.0305 C.1     1  UNL1       -0.0388
     14 C          63.4729   90.4438   13.1748 C.ar    1  UNL1        0.1451
     15 C          63.3926   89.9715   14.5963 C.ar    1  UNL1        0.1281
     16 N          64.3981   90.7431   15.3985 N.ar    1  UNL1       -0.2228
     17 C          65.0998   91.6923   14.4729 C.ar    1  UNL1        0.1646
     18 C          66.1855   92.7011   14.7039 C.ar    1  UNL1        0.0405
     19 C          66.6994   93.5250   13.5606 C.ar    1  UNL1        0.0256
     20 C          66.1275   93.3400   12.1863 C.ar    1  UNL1        0.1207
     21 N          65.0418   92.3312   11.9553 N.ar    1  UNL1       -0.1616
     22 N          64.5279   91.5073   13.0986 N.ar    1  UNL1       -0.2030
     23 C          60.8226   91.6184    4.2785 C.ar    1  UNL1        0.0514
     24 C          59.5037   92.2776    4.0029 C.ar    1  UNL1        0.0145
     25 C          59.3290   93.1217    2.7754 C.ar    1  UNL1       -0.0008
     26 C          60.4733   93.3068    1.8233 C.ar    1  UNL1        0.0045
     27 C          61.7923   92.6476    2.0988 C.ar    1  UNL1        0.0562
     28 CL         62.9366   92.8326    1.1469 Cl      1  UNL1       -0.0825
     29 C          61.9669   91.8034    3.3264 C.ar    1  UNL1        0.0258
     30 C          60.2987   94.1509    0.5958 C.3     1  UNL1        0.1003
     31 N          58.9637   94.2176   -0.0848 N.3     1  UNL1       -0.2633
     32 C          58.2594   95.4670   -0.5241 C.3     1  UNL1        0.0987
     33 C          56.9591   95.0682   -1.1565 C.2     1  UNL1        0.0177
     34 C          55.7201   95.5939   -1.8188 C.2     1  UNL1        0.1165
     35 N          54.8549   94.4229   -2.1796 N.2     1  UNL1       -0.1513
     36 N          55.5592   93.1735   -1.7403 N.2     1  UNL1       -0.1708
     37 C          56.8595   93.5723   -1.1080 C.3     1  UNL1        0.1621
     38 C          58.0985   93.0466   -0.4457 C.3     1  UNL1        0.1034
@<TRIPOS>BOND
     1     5     6    1
     2     6     7   ar
     3     7     8   ar
     4     8     9   ar
     5     9     1    1
     6     1     2    2
     7     1     3   am
     8     3    23    1
     9    23    24   ar
    10    24    25   ar
    11    25    26   ar
    12    26    30    1
    13    30    31    1
    14    31    32    1
    15    32    33    1
    16    33    34    2
    17    34    35    1
    18    35    36    2
    19    36    37    1
    20    37    38    1
    21    26    27   ar
    22    27    28    1
    23    27    29   ar
    24     9    10   ar
    25    10    11   ar
    26    11    12    1
    27    12    13    3
    28    13    14    1
    29    14    15   ar
    30    15    16   ar
    31    16    17   ar
    32    17    18   ar
    33    18    19   ar
    34    19    20   ar
    35    20    21   ar
    36    21    22   ar
    37    11     6   ar
    38    22    14   ar
    39    29    23   ar
    40    22    17   ar
    41    38    31    1
    42    37    33    1
    43     3     4    1
@<TRIPOS>MOLECULE
*****
 38 43 0 0 0
SMALL
GASTEIGER

@<TRIPOS>ATOM
      1 C          59.8215   89.9932    6.0552 C.2     1  UNL1        0.2495
      2 O          58.5428   89.9465    5.2724 O.2     1  UNL1       -0.2698
      3 N          60.9675   90.8309    5.5705 N.am    1  UNL1       -0.2804
      4 H          61.8067   90.8615    6.0843 H       1  UNL1        0.1552
      5 C          60.3523   86.8288   11.1252 C.3     1  UNL1        0.0317
      6 C          60.2196   87.6199    9.8577 C.ar    1  UNL1       -0.0142
      7 C          59.3711   87.1008    8.7350 C.ar    1  UNL1       -0.0035
      8 C          59.2383   87.8918    7.4675 C.ar    1  UNL1        0.0042
      9 C          59.9542   89.2021    7.3227 C.ar    1  UNL1        0.0543
     10 C          60.8028   89.7211    8.4454 C.ar    1  UNL1        0.0124
     11 C          60.9355   88.9300    9.7129 C.ar    1  UNL1        0.0382
     12 C          61.7840   89.4491   10.8356 C.1     1  UNL1       -0.0585
     13 C          62.6326   89.9682   11.9583 C.1     1  UNL1       -0.0388
     14 C          63.4812   90.4873   13.0811 C.ar    1  UNL1        0.1451
     15 C          63.4336   90.0268   14.5078 C.ar    1  UNL1        0.1281
     16 N          64.4493   90.8129   15.2827 N.ar    1  UNL1       -0.2228
     17 C          65.1246   91.7592   14.3348 C.ar    1  UNL1        0.1646
     18 C          66.2071   92.7782   14.5349 C.ar    1  UNL1        0.0405
     19 C          66.6912   93.5958   13.3742 C.ar    1  UNL1        0.0256
     20 C          66.0928   93.3946   12.0136 C.ar    1  UNL1        0.1207
     21 N          65.0104   92.3756   11.8135 N.ar    1  UNL1       -0.1616
     22 N          64.5263   91.5580   12.9741 N.ar    1  UNL1       -0.2030
     23 C          60.8348   91.6220    4.3030 C.ar    1  UNL1        0.0514
     24 C          59.5613   92.3574    4.0077 C.ar    1  UNL1        0.0145
     25 C          59.4286   93.1485    2.7402 C.ar    1  UNL1       -0.0008
     26 C          60.5695   93.2042    1.7680 C.ar    1  UNL1        0.0045
     27 C          61.8431   92.4688    2.0632 C.ar    1  UNL1        0.0562
     28 CL         62.9840   92.5245    1.0911 Cl      1  UNL1       -0.0825
     29 C          61.9757   91.6777    3.3308 C.ar    1  UNL1        0.0258
     30 C          60.4368   93.9953    0.5005 C.3     1  UNL1        0.1003
     31 N          61.6521   94.6029   -0.1351 N.3     1  UNL1       -0.2633
     32 C          62.2375   94.2203   -1.4621 C.3     1  UNL1        0.0987
     33 C          63.4425   95.0806   -1.7024 C.2     1  UNL1        0.0177
     34 C          64.5491   95.3758   -2.6711 C.2     1  UNL1        0.1165
     35 N          65.3923   96.4726   -2.0913 N.2     1  UNL1       -0.1513
     36 N          64.8068   96.8552   -0.7643 N.2     1  UNL1       -0.1708
     37 C          63.6018   95.9949   -0.5240 C.3     1  UNL1        0.1621
     38 C          62.4953   95.6996    0.4447 C.3     1  UNL1        0.1034
@<TRIPOS>BOND
     1     5     6    1
     2     6     7   ar
     3     7     8   ar
     4     8     9   ar
     5     9     1    1
     6     1     2    2
     7     1     3   am
     8     3    23    1
     9    23    24   ar
    10    24    25   ar
    11    25    26   ar
    12    26    30    1
    13    30    31    1
    14    31    32    1
    15    32    33    1
    16    33    34    2
    17    34    35    1
    18    35    36    2
    19    36    37    1
    20    37    38    1
    21    26    27   ar
    22    27    28    1
    23    27    29   ar
    24     9    10   ar
    25    10    11   ar
    26    11    12    1
    27    12    13    3
    28    13    14    1
    29    14    15   ar
    30    15    16   ar
    31    16    17   ar
    32    17    18   ar
    33    18    19   ar
    34    19    20   ar
    35    20    21   ar
    36    21    22   ar
    37    11     6   ar
    38    22    14   ar
    39    29    23   ar
    40    22    17   ar
    41    38    31    1
    42    37    33    1
    43     3     4    1
@<TRIPOS>MOLECULE
*****
 38 43 0 0 0
SMALL
GASTEIGER

@<TRIPOS>ATOM
      1 C          60.3445   88.8703    7.8470 C.2     1  UNL1        0.2495
      2 O          60.0533   87.3988    7.8526 O.2     1  UNL1       -0.2698
      3 N          61.1840   89.4730    8.9341 N.am    1  UNL1       -0.2804
      4 H          61.3751   90.4388    8.9304 H       1  UNL1        0.1552
      5 C          58.1510   92.3454    3.4752 C.3     1  UNL1        0.0317
      6 C          58.6994   91.4767    4.5681 C.ar    1  UNL1       -0.0142
      7 C          57.7698   90.8429    5.5602 C.ar    1  UNL1       -0.0035
      8 C          58.3180   89.9742    6.6531 C.ar    1  UNL1        0.0042
      9 C          59.7961   89.7391    6.7540 C.ar    1  UNL1        0.0543
     10 C          60.7258   90.3728    5.7620 C.ar    1  UNL1        0.0124
     11 C          60.1774   91.2416    4.6690 C.ar    1  UNL1        0.0382
     12 C          61.1070   91.8753    3.6770 C.1     1  UNL1       -0.0585
     13 C          62.0367   92.5091    2.6850 C.1     1  UNL1       -0.0388
     14 C          62.9664   93.1428    1.6929 C.ar    1  UNL1        0.1451
     15 C          64.3387   93.6733    1.9847 C.ar    1  UNL1        0.1281
     16 N          64.9073   94.2156    0.7070 N.ar    1  UNL1       -0.2228
     17 C          63.8864   94.0203   -0.3744 C.ar    1  UNL1        0.1646
     18 C          63.8941   94.3606   -1.8353 C.ar    1  UNL1        0.0405
     19 C          62.7022   94.0378   -2.6868 C.ar    1  UNL1        0.0256
     20 C          61.5026   93.3747   -2.0775 C.ar    1  UNL1        0.1207
     21 N          61.4949   93.0345   -0.6166 N.ar    1  UNL1       -0.1616
     22 N          62.6868   93.3573    0.2349 N.ar    1  UNL1       -0.2030
     23 C          61.7324   88.6043   10.0271 C.ar    1  UNL1        0.0514
     24 C          61.4704   87.1274   10.0140 C.ar    1  UNL1        0.0145
     25 C          62.0187   86.2587   11.1069 C.ar    1  UNL1       -0.0008
     26 C          62.8292   86.8668   12.2130 C.ar    1  UNL1        0.0045
     27 C          63.0913   88.3436   12.2262 C.ar    1  UNL1        0.0562
     28 CL         63.9017   88.9518   13.3322 Cl      1  UNL1       -0.0825
     29 C          62.5428   89.2124   11.1332 C.ar    1  UNL1        0.0258
     30 C          63.3776   85.9980   13.3059 C.3     1  UNL1        0.1003
     31 N          63.0905   84.5257   13.3090 N.3     1  UNL1       -0.2633
     32 C          63.4533   83.5545   12.2251 C.3     1  UNL1        0.0987
     33 C          62.9772   82.1948   12.6427 C.2     1  UNL1        0.0177
     34 C          62.9072   80.7541   12.2309 C.2     1  UNL1        0.1165
     35 N          62.2069   79.9946   13.3184 N.2     1  UNL1       -0.1513
     36 N          61.8440   80.9659   14.4023 N.2     1  UNL1       -0.1708
     37 C          62.3201   82.3256   13.9847 C.3     1  UNL1        0.1621
     38 C          62.3901   83.7663   14.3966 C.3     1  UNL1        0.1034
@<TRIPOS>BOND
     1     5     6    1
     2     6     7   ar
     3     7     8   ar
     4     8     9   ar
     5     9     1    1
     6     1     2    2
     7     1     3   am
     8     3    23    1
     9    23    24   ar
    10    24    25   ar
    11    25    26   ar
    12    26    30    1
    13    30    31    1
    14    31    32    1
    15    32    33    1
    16    33    34    2
    17    34    35    1
    18    35    36    2
    19    36    37    1
    20    37    38    1
    21    26    27   ar
    22    27    28    1
    23    27    29   ar
    24     9    10   ar
    25    10    11   ar
    26    11    12    1
    27    12    13    3
    28    13    14    1
    29    14    15   ar
    30    15    16   ar
    31    16    17   ar
    32    17    18   ar
    33    18    19   ar
    34    19    20   ar
    35    20    21   ar
    36    21    22   ar
    37    11     6   ar
    38    22    14   ar
    39    29    23   ar
    40    22    17   ar
    41    38    31    1
    42    37    33    1
    43     3     4    1
@<TRIPOS>MOLECULE
*****
 38 43 0 0 0
SMALL
GASTEIGER

@<TRIPOS>ATOM
      1 C          60.3569   88.9576    7.9358 C.2     1  UNL1        0.2495
      2 O          60.5550   89.5726    9.2895 O.2     1  UNL1       -0.2698
      3 N          60.7094   87.5176    7.7073 N.am    1  UNL1       -0.2804
      4 H          60.5794   87.1140    6.8188 H       1  UNL1        0.1552
      5 C          58.1545   92.2577    3.4348 C.3     1  UNL1        0.0317
      6 C          58.7051   91.4327    4.5601 C.ar    1  UNL1       -0.0142
      7 C          57.7746   90.8071    5.5565 C.ar    1  UNL1       -0.0035
      8 C          58.3252   89.9821    6.6817 C.ar    1  UNL1        0.0042
      9 C          59.8063   89.7826    6.8106 C.ar    1  UNL1        0.0543
     10 C          60.7368   90.4082    5.8141 C.ar    1  UNL1        0.0124
     11 C          60.1861   91.2333    4.6889 C.ar    1  UNL1        0.0382
     12 C          61.1166   91.8589    3.6925 C.1     1  UNL1       -0.0585
     13 C          62.0471   92.4846    2.6961 C.1     1  UNL1       -0.0388
     14 C          62.9776   93.1102    1.6997 C.ar    1  UNL1        0.1451
     15 C          64.3561   93.6281    1.9849 C.ar    1  UNL1        0.1281
     16 N          64.9233   94.1658    0.7046 N.ar    1  UNL1       -0.2228
     17 C          63.8953   93.9802   -0.3719 C.ar    1  UNL1        0.1646
     18 C          63.8989   94.3209   -1.8326 C.ar    1  UNL1        0.0405
     19 C          62.7000   94.0093   -2.6783 C.ar    1  UNL1        0.0256
     20 C          61.4974   93.3569   -2.0633 C.ar    1  UNL1        0.1207
     21 N          61.4938   93.0162   -0.6026 N.ar    1  UNL1       -0.1616
     22 N          62.6928   93.3278    0.2432 N.ar    1  UNL1       -0.2030
     23 C          61.2600   86.6926    8.8325 C.ar    1  UNL1        0.0514
     24 C          60.7594   86.9020   10.2308 C.ar    1  UNL1        0.0145
     25 C          61.3100   86.0769   11.3561 C.ar    1  UNL1       -0.0008
     26 C          62.3613   85.0425   11.0829 C.ar    1  UNL1        0.0045
     27 C          62.8620   84.8330    9.6846 C.ar    1  UNL1        0.0562
     28 CL         63.9133   83.7986    9.4113 Cl      1  UNL1       -0.0825
     29 C          62.3113   85.6581    8.5593 C.ar    1  UNL1        0.0258
     30 C          62.9120   84.2174   12.2081 C.3     1  UNL1        0.1003
     31 N          62.9062   84.7582   13.6072 N.3     1  UNL1       -0.2633
     32 C          63.7998   85.8398   14.1380 C.3     1  UNL1        0.0987
     33 C          63.4518   86.0625   15.5800 C.2     1  UNL1        0.0177
     34 C          63.7890   86.8686   16.7992 C.2     1  UNL1        0.1165
     35 N          62.8887   86.4228   17.9132 N.2     1  UNL1       -0.1513
     36 N          61.9952   85.3412   17.3824 N.2     1  UNL1       -0.1708
     37 C          62.3432   85.1185   15.9404 C.3     1  UNL1        0.1621
     38 C          62.0060   84.3124   14.7212 C.3     1  UNL1        0.1034
@<TRIPOS>BOND
     1     5     6    1
     2     6     7   ar
     3     7     8   ar
     4     8     9   ar
     5     9     1    1
     6     1     2    2
     7     1     3   am
     8     3    23    1
     9    23    24   ar
    10    24    25   ar
    11    25    26   ar
    12    26    30    1
    13    30    31    1
    14    31    32    1
    15    32    33    1
    16    33    34    2
    17    34    35    1
    18    35    36    2
    19    36    37    1
    20    37    38    1
    21    26    27   ar
    22    27    28    1
    23    27    29   ar
    24     9    10   ar
    25    10    11   ar
    26    11    12    1
    27    12    13    3
    28    13    14    1
    29    14    15   ar
    30    15    16   ar
    31    16    17   ar
    32    17    18   ar
    33    18    19   ar
    34    19    20   ar
    35    20    21   ar
    36    21    22   ar
    37    11     6   ar
    38    22    14   ar
    39    29    23   ar
    40    22    17   ar
    41    38    31    1
    42    37    33    1
    43     3     4    1
