@<TRIPOS>MOLECULE
*****
 36 39 0 0 0
SMALL
GASTEIGER

@<TRIPOS>ATOM
      1 N          64.5215   89.9863   13.8325 N.pl3   1  UNL1       -0.2869
      2 C          65.6065   90.8671   14.3775 C.3     1  UNL1        0.0926
      3 C          65.7016   92.0812   13.5019 C.3     1  UNL1        0.0237
      4 C          64.6753   91.9508   12.4157 C.3     1  UNL1        0.0309
      5 C          63.9460   90.6561   12.6200 C.3     1  UNL1        0.1508
      6 C          63.6202   86.1302   14.0934 C.ar    1  UNL1        0.1362
      7 C          64.0535   87.4491   13.5257 C.ar    1  UNL1        0.0686
      8 C          64.0881   88.6672   14.4004 C.ar    1  UNL1        0.1364
      9 N          63.6894   88.5663   15.8428 N.ar    1  UNL1       -0.2083
     10 C          63.2560   87.2473   16.4106 C.ar    1  UNL1        0.2374
     11 N          63.2214   86.0292   15.5359 N.ar    1  UNL1       -0.2083
     12 C          63.4819   81.2578   10.5947 C.3     1  UNL1        0.0897
     13 N          63.5165   82.4759   11.4693 N.3     1  UNL1       -0.2686
     14 C          62.4337   83.5082   11.3607 C.3     1  UNL1        0.0939
     15 C          62.4683   84.7263   12.2354 C.3     1  UNL1        0.1095
     16 N          63.5856   84.9121   13.2187 N.pl3   1  UNL1       -0.2903
     17 C          64.6684   83.8798   13.3274 C.3     1  UNL1        0.1095
     18 C          64.6338   82.6617   12.4527 C.3     1  UNL1        0.0939
     19 C          62.8572   87.1463   17.8531 C.3     1  UNL1        0.4524
     20 F          62.4584   87.0453   19.2956 F       1  UNL1       -0.1632
     21 F          62.4710   85.7119   17.6459 F       1  UNL1       -0.1632
     22 F          63.2434   88.5808   18.0604 F       1  UNL1       -0.1632
     23 C          62.8361   90.1245   11.7624 C.2     1  UNL1        0.2405
     24 O          63.1148   89.7067   10.3490 O.2     1  UNL1       -0.2733
     25 N          61.4475   90.0107   12.3182 N.am    1  UNL1       -0.3027
     26 H          61.2646   90.2849   13.2458 H       1  UNL1        0.1495
     27 C          60.3376   89.4791   11.4606 C.3     1  UNL1        0.0941
     28 C          60.0975   88.0009   11.3758 C.3     1  UNL1        0.0476
     29 C          60.4992   87.2453   10.1438 C.ar    1  UNL1       -0.0204
     30 C          59.4887   86.9706    9.0697 C.ar    1  UNL1       -0.0035
     31 C          59.8904   86.2150    7.8378 C.ar    1  UNL1        0.0100
     32 C          61.3025   85.7340    7.6799 C.ar    1  UNL1        0.0684
     33 C          62.3128   86.0087    8.7540 C.ar    1  UNL1        0.0100
     34 C          61.9112   86.7644    9.9860 C.ar    1  UNL1       -0.0035
     35 C          61.7042   84.9784    6.4479 C.1     1  UNL1        0.1004
     36 N          62.1058   84.2227    5.2161 N.1     1  UNL1       -0.1908
@<TRIPOS>BOND
     1    12    13    1
     2    13    14    1
     3    14    15    1
     4    15    16    1
     5    16     6    1
     6     6     7   ar
     7     7     8   ar
     8     8     1    1
     9     1     2    1
    10     2     3    1
    11     3     4    1
    12     4     5    1
    13     5    23    1
    14    23    24    2
    15    23    25   am
    16    25    27    1
    17    27    28    1
    18    28    29    1
    19    29    30   ar
    20    30    31   ar
    21    31    32   ar
    22    32    35    1
    23    35    36    3
    24    32    33   ar
    25    33    34   ar
    26     8     9   ar
    27     9    10   ar
    28    10    19    1
    29    19    20    1
    30    19    21    1
    31    19    22    1
    32    10    11   ar
    33    16    17    1
    34    17    18    1
    35    18    13    1
    36    11     6   ar
    37     5     1    1
    38    34    29   ar
    39    25    26    1
@<TRIPOS>MOLECULE
*****
 36 39 0 0 0
SMALL
GASTEIGER

@<TRIPOS>ATOM
      1 N          60.8518   87.4445    9.6064 N.pl3   1  UNL1       -0.2869
      2 C          60.1348   86.5875    8.6057 C.3     1  UNL1        0.0926
      3 C          59.4560   87.4933    7.6215 C.3     1  UNL1        0.0237
      4 C          59.7535   88.9102    8.0140 C.3     1  UNL1        0.0309
      5 C          60.6161   88.8800    9.2407 C.3     1  UNL1        0.1508
      6 C          62.5157   84.9948   12.2485 C.ar    1  UNL1        0.1362
      7 C          61.7053   85.4869   11.0862 C.ar    1  UNL1        0.0686
      8 C          61.6622   86.9524   10.7688 C.ar    1  UNL1        0.1364
      9 N          62.4295   87.9256   11.6138 N.ar    1  UNL1       -0.2083
     10 C          63.2399   87.4335   12.7761 C.ar    1  UNL1        0.2374
     11 N          63.2830   85.9681   13.0935 N.ar    1  UNL1       -0.2083
     12 C          62.6880   79.1332   13.5180 C.3     1  UNL1        0.0897
     13 N          62.6449   80.5986   13.2007 N.3     1  UNL1       -0.2686
     14 C          62.2764   81.5865   14.2675 C.3     1  UNL1        0.0939
     15 C          62.2333   83.0519   13.9501 C.3     1  UNL1        0.1095
     16 N          62.5587   83.5294   12.5659 N.pl3   1  UNL1       -0.2903
     17 C          62.9272   82.5415   11.4991 C.3     1  UNL1        0.1095
     18 C          62.9703   81.0761   11.8165 C.3     1  UNL1        0.0939
     19 C          64.0072   88.4067   13.6212 C.3     1  UNL1        0.4524
     20 F          64.7745   89.3799   14.4662 F       1  UNL1       -0.1632
     21 F          64.6335   87.2657   14.3666 F       1  UNL1       -0.1632
     22 F          63.3810   89.5478   12.8757 F       1  UNL1       -0.1632
     23 C          61.1494   90.0754    9.9732 C.2     1  UNL1        0.2405
     24 O          60.2356   90.8967   10.8339 O.2     1  UNL1       -0.2733
     25 N          62.5962   90.4497    9.8450 N.am    1  UNL1       -0.3027
     26 H          63.1959   89.9107    9.2801 H       1  UNL1        0.1495
     27 C          63.1294   91.6452   10.5774 C.3     1  UNL1        0.0941
     28 C          64.5533   92.0730   10.3785 C.3     1  UNL1        0.0476
     29 C          65.4813   92.1607   11.5537 C.ar    1  UNL1       -0.0204
     30 C          64.9246   92.2458   12.9441 C.ar    1  UNL1       -0.0035
     31 C          65.8526   92.3335   14.1193 C.ar    1  UNL1        0.0100
     32 C          67.3371   92.3361   13.9043 C.ar    1  UNL1        0.0684
     33 C          67.8937   92.2510   12.5140 C.ar    1  UNL1        0.0100
     34 C          66.9658   92.1633   11.3386 C.ar    1  UNL1       -0.0035
     35 C          68.2650   92.4238   15.0796 C.1     1  UNL1        0.1004
     36 N          69.1930   92.5114   16.2547 N.1     1  UNL1       -0.1908
@<TRIPOS>BOND
     1    12    13    1
     2    13    14    1
     3    14    15    1
     4    15    16    1
     5    16     6    1
     6     6     7   ar
     7     7     8   ar
     8     8     1    1
     9     1     2    1
    10     2     3    1
    11     3     4    1
    12     4     5    1
    13     5    23    1
    14    23    24    2
    15    23    25   am
    16    25    27    1
    17    27    28    1
    18    28    29    1
    19    29    30   ar
    20    30    31   ar
    21    31    32   ar
    22    32    35    1
    23    35    36    3
    24    32    33   ar
    25    33    34   ar
    26     8     9   ar
    27     9    10   ar
    28    10    19    1
    29    19    20    1
    30    19    21    1
    31    19    22    1
    32    10    11   ar
    33    16    17    1
    34    17    18    1
    35    18    13    1
    36    11     6   ar
    37     5     1    1
    38    34    29   ar
    39    25    26    1
@<TRIPOS>MOLECULE
*****
 36 39 0 0 0
SMALL
GASTEIGER

@<TRIPOS>ATOM
      1 N          67.3324   92.7802   14.3999 N.pl3   1  UNL1       -0.2869
      2 C          68.8009   93.0584   14.5268 C.3     1  UNL1        0.0926
      3 C          69.1905   92.8479   15.9599 C.3     1  UNL1        0.0237
      4 C          67.9627   92.4396   16.7188 C.3     1  UNL1        0.0309
      5 C          66.8143   92.3978   15.7547 C.3     1  UNL1        0.1508
      6 C          64.6580   91.9328   11.5928 C.ar    1  UNL1        0.1362
      7 C          65.4666   91.8441   12.8531 C.ar    1  UNL1        0.0686
      8 C          66.5238   92.8689   13.1395 C.ar    1  UNL1        0.1364
      9 N          66.7726   93.9823   12.1657 N.ar    1  UNL1       -0.2083
     10 C          65.9641   94.0709   10.9054 C.ar    1  UNL1        0.2374
     11 N          64.9068   93.0462   10.6189 N.ar    1  UNL1       -0.2083
     12 C          60.4289   87.8338   10.4470 C.3     1  UNL1        0.0897
     13 N          61.4862   88.8585   10.7335 N.3     1  UNL1       -0.2686
     14 C          62.3509   88.7237   11.9517 C.3     1  UNL1        0.0939
     15 C          63.4082   89.7485   12.2381 C.3     1  UNL1        0.1095
     16 N          63.6008   90.9080   11.3064 N.pl3   1  UNL1       -0.2903
     17 C          62.7361   91.0428   10.0881 C.3     1  UNL1        0.1095
     18 C          61.6788   90.0181    9.8017 C.3     1  UNL1        0.0939
     19 C          66.2128   95.1843    9.9314 C.3     1  UNL1        0.4524
     20 F          66.4615   96.2977    8.9576 F       1  UNL1       -0.1632
     21 F          64.8340   95.7164   10.1876 F       1  UNL1       -0.1632
     22 F          67.5917   94.6523    9.6753 F       1  UNL1       -0.1632
     23 C          65.3969   92.0369   16.0870 C.2     1  UNL1        0.2405
     24 O          64.5900   92.9214   16.9908 O.2     1  UNL1       -0.2733
     25 N          64.7862   90.7917   15.5157 N.am    1  UNL1       -0.3027
     26 H          65.3158   90.2113   14.9226 H       1  UNL1        0.1495
     27 C          63.3687   90.4309   15.8481 C.3     1  UNL1        0.0941
     28 C          63.0847   89.3307   16.8273 C.3     1  UNL1        0.0476
     29 C          63.2362   87.8978   16.4103 C.ar    1  UNL1       -0.0204
     30 C          64.0778   87.5485   15.2187 C.ar    1  UNL1       -0.0035
     31 C          64.2293   86.1156   14.8017 C.ar    1  UNL1        0.0100
     32 C          63.5393   85.0320   15.5762 C.ar    1  UNL1        0.0684
     33 C          62.6977   85.3814   16.7677 C.ar    1  UNL1        0.0100
     34 C          62.5462   86.8143   17.1848 C.ar    1  UNL1       -0.0035
     35 C          63.6907   83.5992   15.1591 C.1     1  UNL1        0.1004
     36 N          63.8423   82.1663   14.7421 N.1     1  UNL1       -0.1908
@<TRIPOS>BOND
     1    12    13    1
     2    13    14    1
     3    14    15    1
     4    15    16    1
     5    16     6    1
     6     6     7   ar
     7     7     8   ar
     8     8     1    1
     9     1     2    1
    10     2     3    1
    11     3     4    1
    12     4     5    1
    13     5    23    1
    14    23    24    2
    15    23    25   am
    16    25    27    1
    17    27    28    1
    18    28    29    1
    19    29    30   ar
    20    30    31   ar
    21    31    32   ar
    22    32    35    1
    23    35    36    3
    24    32    33   ar
    25    33    34   ar
    26     8     9   ar
    27     9    10   ar
    28    10    19    1
    29    19    20    1
    30    19    21    1
    31    19    22    1
    32    10    11   ar
    33    16    17    1
    34    17    18    1
    35    18    13    1
    36    11     6   ar
    37     5     1    1
    38    34    29   ar
    39    25    26    1
@<TRIPOS>MOLECULE
*****
 36 39 0 0 0
SMALL
GASTEIGER

@<TRIPOS>ATOM
      1 N          63.4860   87.6019   15.9881 N.pl3   1  UNL1       -0.2869
      2 C          62.7565   87.8256   17.2796 C.3     1  UNL1        0.0926
      3 C          62.5726   86.4938   17.9447 C.3     1  UNL1        0.0237
      4 C          63.1885   85.4470   17.0644 C.3     1  UNL1        0.0309
      5 C          63.7531   86.1319   15.8552 C.3     1  UNL1        0.1508
      6 C          65.3176   90.7352   14.3824 C.ar    1  UNL1        0.1362
      7 C          64.9241   89.6749   15.3678 C.ar    1  UNL1        0.0686
      8 C          63.8795   88.6623   15.0027 C.ar    1  UNL1        0.1364
      9 N          63.2283   88.7099   13.6523 N.ar    1  UNL1       -0.2083
     10 C          63.6218   89.7702   12.6669 C.ar    1  UNL1        0.2374
     11 N          64.6664   90.7828   13.0320 N.ar    1  UNL1       -0.2083
     12 C          69.4961   94.7858   15.8428 C.3     1  UNL1        0.0897
     13 N          68.4515   93.7732   15.4777 N.3     1  UNL1       -0.2686
     14 C          68.5876   92.3539   15.9435 C.3     1  UNL1        0.0939
     15 C          67.5430   91.3412   15.5784 C.3     1  UNL1        0.1095
     16 N          66.3622   91.7478   14.7475 N.pl3   1  UNL1       -0.2903
     17 C          66.2261   93.1671   14.2817 C.3     1  UNL1        0.1095
     18 C          67.2707   94.1798   14.6468 C.3     1  UNL1        0.0939
     19 C          62.9707   89.8178   11.3164 C.3     1  UNL1        0.4524
     20 F          62.3195   89.8655    9.9660 F       1  UNL1       -0.1632
     21 F          62.8624   91.3102   11.4214 F       1  UNL1       -0.1632
     22 F          63.0789   88.3254   11.2115 F       1  UNL1       -0.1632
     23 C          64.4604   85.4640   14.7134 C.2     1  UNL1        0.2405
     24 O          65.9517   85.5691   14.5906 O.2     1  UNL1       -0.2733
     25 N          63.6766   84.6910   13.6946 N.am    1  UNL1       -0.3027
     26 H          62.6979   84.6221   13.7752 H       1  UNL1        0.1495
     27 C          64.3840   84.0231   12.5529 C.3     1  UNL1        0.0941
     28 C          63.6169   83.6188   11.3288 C.3     1  UNL1        0.0476
     29 C          62.7996   84.6342   10.5865 C.ar    1  UNL1       -0.0204
     30 C          63.0341   84.8605    9.1223 C.ar    1  UNL1       -0.0035
     31 C          62.2168   85.8758    8.3800 C.ar    1  UNL1        0.0100
     32 C          61.1649   86.6649    9.1018 C.ar    1  UNL1        0.0684
     33 C          60.9304   86.4385   10.5660 C.ar    1  UNL1        0.0100
     34 C          61.7477   85.4232   11.3084 C.ar    1  UNL1       -0.0035
     35 C          60.3475   87.6802    8.3596 C.1     1  UNL1        0.1004
     36 N          59.5302   88.6954    7.6172 N.1     1  UNL1       -0.1908
@<TRIPOS>BOND
     1    12    13    1
     2    13    14    1
     3    14    15    1
     4    15    16    1
     5    16     6    1
     6     6     7   ar
     7     7     8   ar
     8     8     1    1
     9     1     2    1
    10     2     3    1
    11     3     4    1
    12     4     5    1
    13     5    23    1
    14    23    24    2
    15    23    25   am
    16    25    27    1
    17    27    28    1
    18    28    29    1
    19    29    30   ar
    20    30    31   ar
    21    31    32   ar
    22    32    35    1
    23    35    36    3
    24    32    33   ar
    25    33    34   ar
    26     8     9   ar
    27     9    10   ar
    28    10    19    1
    29    19    20    1
    30    19    21    1
    31    19    22    1
    32    10    11   ar
    33    16    17    1
    34    17    18    1
    35    18    13    1
    36    11     6   ar
    37     5     1    1
    38    34    29   ar
    39    25    26    1
@<TRIPOS>MOLECULE
*****
 36 39 0 0 0
SMALL
GASTEIGER

@<TRIPOS>ATOM
      1 N          61.5073   89.0949   10.2594 N.pl3   1  UNL1       -0.2869
      2 C          60.4400   89.7524    9.4356 C.3     1  UNL1        0.0926
      3 C          59.6754   88.6764    8.7233 C.3     1  UNL1        0.0237
      4 C          60.2702   87.3538    9.1068 C.3     1  UNL1        0.0309
      5 C          61.4023   87.6124   10.0561 C.3     1  UNL1        0.1508
      6 C          64.3925   91.5570   11.4271 C.ar    1  UNL1        0.1362
      7 C          63.3954   90.8552   10.5536 C.ar    1  UNL1        0.0686
      8 C          62.5045   89.7966   11.1330 C.ar    1  UNL1        0.1364
      9 N          62.6108   89.4398   12.5860 N.ar    1  UNL1       -0.2083
     10 C          63.6080   90.1416   13.4596 C.ar    1  UNL1        0.2374
     11 N          64.4988   91.2002   12.8801 N.ar    1  UNL1       -0.2083
     12 C          67.9559   95.7914    9.1093 C.3     1  UNL1        0.0897
     13 N          67.0650   94.7328    9.6887 N.3     1  UNL1       -0.2686
     14 C          67.4458   93.2865    9.5734 C.3     1  UNL1        0.0939
     15 C          66.5549   92.2280   10.1529 C.3     1  UNL1        0.1095
     16 N          65.2834   92.6156   10.8477 N.pl3   1  UNL1       -0.2903
     17 C          64.9026   94.0619   10.9630 C.3     1  UNL1        0.1095
     18 C          65.7935   95.1205   10.3835 C.3     1  UNL1        0.0939
     19 C          63.7144   89.7847   14.9127 C.3     1  UNL1        0.4524
     20 F          63.8207   89.4280   16.3657 F       1  UNL1       -0.1632
     21 F          63.4478   91.2136   15.2830 F       1  UNL1       -0.1632
     22 F          63.9810   88.3559   14.5424 F       1  UNL1       -0.1632
     23 C          62.2761   86.5714   10.6907 C.2     1  UNL1        0.2405
     24 O          62.9312   85.5228    9.8413 O.2     1  UNL1       -0.2733
     25 N          62.4949   86.5789   12.1746 N.am    1  UNL1       -0.3027
     26 H          62.0649   87.2671   12.7321 H       1  UNL1        0.1495
     27 C          63.3686   85.5378   12.8093 C.3     1  UNL1        0.0941
     28 C          62.7497   84.3650   13.5102 C.3     1  UNL1        0.0476
     29 C          62.7678   83.0108   12.8654 C.ar    1  UNL1       -0.0204
     30 C          62.3277   81.8048   13.6413 C.ar    1  UNL1       -0.0035
     31 C          62.3459   80.4506   12.9964 C.ar    1  UNL1        0.0100
     32 C          62.8041   80.3023   11.5758 C.ar    1  UNL1        0.0684
     33 C          63.2442   81.5083   10.8001 C.ar    1  UNL1        0.0100
     34 C          63.2261   82.8626   11.4448 C.ar    1  UNL1       -0.0035
     35 C          62.8223   78.9481   10.9310 C.1     1  UNL1        0.1004
     36 N          62.8405   77.5939   10.2862 N.1     1  UNL1       -0.1908
@<TRIPOS>BOND
     1    12    13    1
     2    13    14    1
     3    14    15    1
     4    15    16    1
     5    16     6    1
     6     6     7   ar
     7     7     8   ar
     8     8     1    1
     9     1     2    1
    10     2     3    1
    11     3     4    1
    12     4     5    1
    13     5    23    1
    14    23    24    2
    15    23    25   am
    16    25    27    1
    17    27    28    1
    18    28    29    1
    19    29    30   ar
    20    30    31   ar
    21    31    32   ar
    22    32    35    1
    23    35    36    3
    24    32    33   ar
    25    33    34   ar
    26     8     9   ar
    27     9    10   ar
    28    10    19    1
    29    19    20    1
    30    19    21    1
    31    19    22    1
    32    10    11   ar
    33    16    17    1
    34    17    18    1
    35    18    13    1
    36    11     6   ar
    37     5     1    1
    38    34    29   ar
    39    25    26    1
@<TRIPOS>MOLECULE
*****
 36 39 0 0 0
SMALL
GASTEIGER

@<TRIPOS>ATOM
      1 N          63.4125   90.3935   12.4839 N.pl3   1  UNL1       -0.2869
      2 C          64.1698   91.4289   11.7065 C.3     1  UNL1        0.0926
      3 C          65.2474   91.9783   12.5936 C.3     1  UNL1        0.0237
      4 C          65.1560   91.2825   13.9193 C.3     1  UNL1        0.0309
      5 C          64.0220   90.3030   13.8515 C.3     1  UNL1        0.1508
      6 C          61.2717   87.8344   10.3349 C.ar    1  UNL1        0.1362
      7 C          62.4343   88.6382   10.8369 C.ar    1  UNL1        0.0686
      8 C          62.2498   89.5896   11.9818 C.ar    1  UNL1        0.1364
      9 N          60.9026   89.7373   12.6246 N.ar    1  UNL1       -0.2083
     10 C          59.7400   88.9335   12.1225 C.ar    1  UNL1        0.2374
     11 N          59.9245   87.9821   10.9777 N.ar    1  UNL1       -0.2083
     12 C          62.0099   84.0288    5.7553 C.3     1  UNL1        0.0897
     13 N          61.8254   84.9802    6.9002 N.3     1  UNL1       -0.2686
     14 C          62.9402   85.2009    7.8791 C.3     1  UNL1        0.0939
     15 C          62.7557   86.1523    9.0240 C.3     1  UNL1        0.1095
     16 N          61.4563   86.8830    9.1900 N.pl3   1  UNL1       -0.2903
     17 C          60.3414   86.6623    8.2110 C.3     1  UNL1        0.1095
     18 C          60.5260   85.7109    7.0661 C.3     1  UNL1        0.0939
     19 C          58.3927   89.0810   12.7653 C.3     1  UNL1        0.4524
     20 F          57.0454   89.2287   13.4081 F       1  UNL1       -0.1632
     21 F          58.0791   90.2238   11.8457 F       1  UNL1       -0.1632
     22 F          58.7062   87.9383   13.6850 F       1  UNL1       -0.1632
     23 C          63.5759   89.3928   14.9572 C.2     1  UNL1        0.2405
     24 O          62.7839   89.9417   16.1068 O.2     1  UNL1       -0.2733
     25 N          63.9216   87.9339   14.9133 N.am    1  UNL1       -0.3027
     26 H          64.4413   87.5737   14.1588 H       1  UNL1        0.1495
     27 C          63.4754   87.0237   16.0190 C.3     1  UNL1        0.0941
     28 C          64.0772   85.6564   16.1537 C.3     1  UNL1        0.0476
     29 C          63.8255   84.6190   15.0999 C.ar    1  UNL1       -0.0204
     30 C          64.7247   84.5329   13.9023 C.ar    1  UNL1       -0.0035
     31 C          64.4730   83.4956   12.8486 C.ar    1  UNL1        0.0100
     32 C          63.3221   82.5443   12.9922 C.ar    1  UNL1        0.0684
     33 C          62.4230   82.6304   14.1898 C.ar    1  UNL1        0.0100
     34 C          62.6746   83.6678   15.2437 C.ar    1  UNL1       -0.0035
     35 C          63.0704   81.5069   11.9384 C.1     1  UNL1        0.1004
     36 N          62.8186   80.4695   10.8847 N.1     1  UNL1       -0.1908
@<TRIPOS>BOND
     1    12    13    1
     2    13    14    1
     3    14    15    1
     4    15    16    1
     5    16     6    1
     6     6     7   ar
     7     7     8   ar
     8     8     1    1
     9     1     2    1
    10     2     3    1
    11     3     4    1
    12     4     5    1
    13     5    23    1
    14    23    24    2
    15    23    25   am
    16    25    27    1
    17    27    28    1
    18    28    29    1
    19    29    30   ar
    20    30    31   ar
    21    31    32   ar
    22    32    35    1
    23    35    36    3
    24    32    33   ar
    25    33    34   ar
    26     8     9   ar
    27     9    10   ar
    28    10    19    1
    29    19    20    1
    30    19    21    1
    31    19    22    1
    32    10    11   ar
    33    16    17    1
    34    17    18    1
    35    18    13    1
    36    11     6   ar
    37     5     1    1
    38    34    29   ar
    39    25    26    1
@<TRIPOS>MOLECULE
*****
 36 39 0 0 0
SMALL
GASTEIGER

@<TRIPOS>ATOM
      1 N          62.8180   89.9699   11.5125 N.pl3   1  UNL1       -0.2869
      2 C          61.8088   90.1825   10.4233 C.3     1  UNL1        0.0926
      3 C          61.0783   88.8900   10.2094 C.3     1  UNL1        0.0237
      4 C          61.6361   87.8785   11.1665 C.3     1  UNL1        0.0309
      5 C          62.7112   88.5460   11.9718 C.3     1  UNL1        0.1508
      6 C          65.3824   92.9957   11.6482 C.ar    1  UNL1        0.1362
      7 C          64.4331   91.9653   11.1125 C.ar    1  UNL1        0.0686
      8 C          63.7673   91.0004   12.0483 C.ar    1  UNL1        0.1364
      9 N          64.0509   91.0658   13.5197 N.ar    1  UNL1       -0.2083
     10 C          65.0001   92.0963   14.0554 C.ar    1  UNL1        0.2374
     11 N          65.6659   93.0612   13.1197 N.ar    1  UNL1       -0.2083
     12 C          68.0455   96.8555    7.9052 C.3     1  UNL1        0.0897
     13 N          67.3797   95.8905    8.8409 N.3     1  UNL1       -0.2686
     14 C          66.3960   96.3893    9.8576 C.3     1  UNL1        0.0939
     15 C          65.7303   95.4243   10.7933 C.3     1  UNL1        0.1095
     16 N          66.0482   93.9607   10.7125 N.pl3   1  UNL1       -0.2903
     17 C          67.0318   93.4619    9.6958 C.3     1  UNL1        0.1095
     18 C          67.6976   94.4269    8.7601 C.3     1  UNL1        0.0939
     19 C          65.2837   92.1618   15.5270 C.3     1  UNL1        0.4524
     20 F          65.5673   92.2274   16.9985 F       1  UNL1       -0.1632
     21 F          66.4539   93.0618   15.2614 F       1  UNL1       -0.1632
     22 F          64.1135   91.2618   15.7926 F       1  UNL1       -0.1632
     23 C          63.5350   87.9024   13.0475 C.2     1  UNL1        0.2405
     24 O          64.4238   88.7431   13.9156 O.2     1  UNL1       -0.2733
     25 N          63.4700   86.4183   13.2553 N.am    1  UNL1       -0.3027
     26 H          62.8867   85.8666   12.6856 H       1  UNL1        0.1495
     27 C          64.2938   85.7748   14.3311 C.3     1  UNL1        0.0941
     28 C          64.0373   84.3490   14.7203 C.3     1  UNL1        0.0476
     29 C          63.7649   83.3204   13.6631 C.ar    1  UNL1       -0.0204
     30 C          64.3152   83.5029   12.2796 C.ar    1  UNL1       -0.0035
     31 C          64.0428   82.4743   11.2224 C.ar    1  UNL1        0.0100
     32 C          63.2201   81.2631   11.5486 C.ar    1  UNL1        0.0684
     33 C          62.6698   81.0807   12.9320 C.ar    1  UNL1        0.0100
     34 C          62.9422   82.1093   13.9894 C.ar    1  UNL1       -0.0035
     35 C          62.9476   80.2345   10.4914 C.1     1  UNL1        0.1004
     36 N          62.6753   79.2058    9.4343 N.1     1  UNL1       -0.1908
@<TRIPOS>BOND
     1    12    13    1
     2    13    14    1
     3    14    15    1
     4    15    16    1
     5    16     6    1
     6     6     7   ar
     7     7     8   ar
     8     8     1    1
     9     1     2    1
    10     2     3    1
    11     3     4    1
    12     4     5    1
    13     5    23    1
    14    23    24    2
    15    23    25   am
    16    25    27    1
    17    27    28    1
    18    28    29    1
    19    29    30   ar
    20    30    31   ar
    21    31    32   ar
    22    32    35    1
    23    35    36    3
    24    32    33   ar
    25    33    34   ar
    26     8     9   ar
    27     9    10   ar
    28    10    19    1
    29    19    20    1
    30    19    21    1
    31    19    22    1
    32    10    11   ar
    33    16    17    1
    34    17    18    1
    35    18    13    1
    36    11     6   ar
    37     5     1    1
    38    34    29   ar
    39    25    26    1
@<TRIPOS>MOLECULE
*****
 36 39 0 0 0
SMALL
GASTEIGER

@<TRIPOS>ATOM
      1 N          63.7105   84.3042   13.8350 N.pl3   1  UNL1       -0.2869
      2 C          64.2428   83.0207   14.4002 C.3     1  UNL1        0.0926
      3 C          64.1015   81.9582   13.3508 C.3     1  UNL1        0.0237
      4 C          63.4819   82.5851   12.1370 C.3     1  UNL1        0.0309
      5 C          63.2402   84.0349   12.4363 C.3     1  UNL1        0.1508
      6 C          63.9474   88.2067   14.5164 C.ar    1  UNL1        0.1362
      7 C          64.0001   86.8859   13.8074 C.ar    1  UNL1        0.0686
      8 C          63.6578   85.6250   14.5441 C.ar    1  UNL1        0.1364
      9 N          63.2627   85.6848   15.9899 N.ar    1  UNL1       -0.2083
     10 C          63.2100   87.0056   16.6989 C.ar    1  UNL1        0.2374
     11 N          63.5523   88.2665   15.9621 N.ar    1  UNL1       -0.2083
     12 C          65.3168   93.2505   11.5694 C.3     1  UNL1        0.0897
     13 N          64.9745   91.9895   12.3061 N.3     1  UNL1       -0.2686
     14 C          65.6817   91.6527   13.5853 C.3     1  UNL1        0.0939
     15 C          65.3393   90.3918   14.3220 C.3     1  UNL1        0.1095
     16 N          64.2898   89.4676   13.7796 N.pl3   1  UNL1       -0.2903
     17 C          63.5825   89.8044   12.5004 C.3     1  UNL1        0.1095
     18 C          63.9249   91.0654   11.7637 C.3     1  UNL1        0.0939
     19 C          62.8149   87.0654   18.1447 C.3     1  UNL1        0.4524
     20 F          62.4198   87.1252   19.5905 F       1  UNL1       -0.1632
     21 F          62.3891   85.6283   18.0879 F       1  UNL1       -0.1632
     22 F          63.2406   88.5026   18.2016 F       1  UNL1       -0.1632
     23 C          62.6346   85.0392   11.5011 C.2     1  UNL1        0.2405
     24 O          63.0436   85.0622   10.0581 O.2     1  UNL1       -0.2733
     25 N          61.6200   86.0204   12.0087 N.am    1  UNL1       -0.3027
     26 H          61.3516   86.0054   12.9558 H       1  UNL1        0.1495
     27 C          61.0144   87.0247   11.0735 C.3     1  UNL1        0.0941
     28 C          60.4029   86.5722    9.7807 C.3     1  UNL1        0.0476
     29 C          60.0044   87.5820    8.7456 C.ar    1  UNL1       -0.0204
     30 C          59.1759   87.1617    7.5678 C.ar    1  UNL1       -0.0035
     31 C          58.7774   88.1715    6.5326 C.ar    1  UNL1        0.0100
     32 C          59.2073   89.6015    6.6752 C.ar    1  UNL1        0.0684
     33 C          60.0357   90.0217    7.8530 C.ar    1  UNL1        0.0100
     34 C          60.4342   89.0120    8.8882 C.ar    1  UNL1       -0.0035
     35 C          58.8088   90.6113    5.6401 C.1     1  UNL1        0.1004
     36 N          58.4102   91.6210    4.6049 N.1     1  UNL1       -0.1908
@<TRIPOS>BOND
     1    12    13    1
     2    13    14    1
     3    14    15    1
     4    15    16    1
     5    16     6    1
     6     6     7   ar
     7     7     8   ar
     8     8     1    1
     9     1     2    1
    10     2     3    1
    11     3     4    1
    12     4     5    1
    13     5    23    1
    14    23    24    2
    15    23    25   am
    16    25    27    1
    17    27    28    1
    18    28    29    1
    19    29    30   ar
    20    30    31   ar
    21    31    32   ar
    22    32    35    1
    23    35    36    3
    24    32    33   ar
    25    33    34   ar
    26     8     9   ar
    27     9    10   ar
    28    10    19    1
    29    19    20    1
    30    19    21    1
    31    19    22    1
    32    10    11   ar
    33    16    17    1
    34    17    18    1
    35    18    13    1
    36    11     6   ar
    37     5     1    1
    38    34    29   ar
    39    25    26    1
@<TRIPOS>MOLECULE
*****
 36 39 0 0 0
SMALL
GASTEIGER

@<TRIPOS>ATOM
      1 N          61.6299   88.9364   10.7539 N.pl3   1  UNL1       -0.2869
      2 C          60.5274   89.5125    9.9156 C.3     1  UNL1        0.0926
      3 C          59.8704   88.3853    9.1756 C.3     1  UNL1        0.0237
      4 C          60.5667   87.1125    9.5566 C.3     1  UNL1        0.0309
      5 C          61.6541   87.4531   10.5320 C.3     1  UNL1        0.1508
      6 C          64.3496   91.5491   11.9895 C.ar    1  UNL1        0.1362
      7 C          63.4325   90.7774   11.0877 C.ar    1  UNL1        0.0686
      8 C          62.5470   89.7082   11.6558 C.ar    1  UNL1        0.1364
      9 N          62.5787   89.4107   13.1256 N.ar    1  UNL1       -0.2083
     10 C          63.4958   90.1824   14.0274 C.ar    1  UNL1        0.2374
     11 N          64.3812   91.2516   13.4594 N.ar    1  UNL1       -0.2083
     12 C          67.8915   95.8261    9.7174 C.3     1  UNL1        0.0897
     13 N          67.0060   94.7569   10.2854 N.3     1  UNL1       -0.2686
     14 C          66.7680   93.4923    9.5146 C.3     1  UNL1        0.0939
     15 C          65.8825   92.4231   10.0826 C.3     1  UNL1        0.1095
     16 N          65.2351   92.6184   11.4215 N.pl3   1  UNL1       -0.2903
     17 C          65.4731   93.8829   12.1924 C.3     1  UNL1        0.1095
     18 C          66.3586   94.9521   11.6243 C.3     1  UNL1        0.0939
     19 C          63.5274   89.8849   15.4973 C.3     1  UNL1        0.4524
     20 F          63.5591   89.5875   16.9672 F       1  UNL1       -0.1632
     21 F          63.2408   91.3268   15.7953 F       1  UNL1       -0.1632
     22 F          63.8141   88.4431   15.1994 F       1  UNL1       -0.1632
     23 C          62.5997   86.4811   11.1730 C.2     1  UNL1        0.2405
     24 O          63.3023   86.8472   12.4468 O.2     1  UNL1       -0.2733
     25 N          62.8429   85.1430   10.5404 N.am    1  UNL1       -0.3027
     26 H          62.3818   84.9027    9.7044 H       1  UNL1        0.1495
     27 C          63.7885   84.1710   11.1814 C.3     1  UNL1        0.0941
     28 C          63.3622   83.3991   12.3949 C.3     1  UNL1        0.0476
     29 C          63.2171   84.0968   13.7148 C.ar    1  UNL1       -0.0204
     30 C          61.8948   84.0941   14.4231 C.ar    1  UNL1       -0.0035
     31 C          61.7497   84.7919   15.7430 C.ar    1  UNL1        0.0100
     32 C          62.9267   85.4923   16.3546 C.ar    1  UNL1        0.0684
     33 C          64.2489   85.4949   15.6463 C.ar    1  UNL1        0.0100
     34 C          64.3942   84.7972   14.3263 C.ar    1  UNL1       -0.0035
     35 C          62.7816   86.1900   17.6745 C.1     1  UNL1        0.1004
     36 N          62.6366   86.8877   18.9944 N.1     1  UNL1       -0.1908
@<TRIPOS>BOND
     1    12    13    1
     2    13    14    1
     3    14    15    1
     4    15    16    1
     5    16     6    1
     6     6     7   ar
     7     7     8   ar
     8     8     1    1
     9     1     2    1
    10     2     3    1
    11     3     4    1
    12     4     5    1
    13     5    23    1
    14    23    24    2
    15    23    25   am
    16    25    27    1
    17    27    28    1
    18    28    29    1
    19    29    30   ar
    20    30    31   ar
    21    31    32   ar
    22    32    35    1
    23    35    36    3
    24    32    33   ar
    25    33    34   ar
    26     8     9   ar
    27     9    10   ar
    28    10    19    1
    29    19    20    1
    30    19    21    1
    31    19    22    1
    32    10    11   ar
    33    16    17    1
    34    17    18    1
    35    18    13    1
    36    11     6   ar
    37     5     1    1
    38    34    29   ar
    39    25    26    1
