@<TRIPOS>MOLECULE
*****
 21 24 0 0 0
SMALL
GASTEIGER

@<TRIPOS>ATOM
      1 N          64.5987   84.3179   15.4549 N.pl3   1  UNL1       -0.1958
      2 H          65.4743   83.9932   15.7666 H       1  UNL1        0.2986
      3 C          64.1832   85.7333   15.7275 C.ar    1  UNL1        0.1357
      4 C          63.3618   86.0532   16.9412 C.ar    1  UNL1        0.0402
      5 C          62.9464   87.4684   17.2139 C.ar    1  UNL1        0.0050
      6 C          63.3523   88.5639   16.2729 C.ar    1  UNL1        0.0194
      7 C          62.9368   89.9791   16.5456 C.ar    1  UNL1        0.0988
      8 N          63.3428   91.0744   15.6047 N.ar    1  UNL1       -0.2423
      9 C          64.1642   90.7545   14.3910 C.ar    1  UNL1        0.0989
     10 C          64.5797   89.3393   14.1183 C.ar    1  UNL1        0.0208
     11 C          64.1737   88.2440   15.0593 C.ar    1  UNL1        0.0064
     12 C          64.5892   86.8286   14.7866 C.ar    1  UNL1        0.0402
     13 C          63.4732   81.9802   10.4644 C.2     1  UNL1        0.0010
     14 C          64.5913   82.9264   10.7880 C.2     1  UNL1        0.0950
     15 N          64.7447   83.4572   12.1826 N.2     1  UNL1       -0.2354
     16 C          63.7800   83.0417   13.2535 C.2     1  UNL1        0.1834
     17 C          63.6801   83.3975   14.7072 C.2     1  UNL1        0.3707
     18 N          62.5003   82.6711   15.2822 N.2     1  UNL1        0.0819
     19 N          61.8711   81.8665   14.1837 N.2     1  UNL1       -0.0365
     20 C          62.6620   82.0955   12.9299 C.2     1  UNL1        0.1346
     21 C          62.5086   81.5647   11.5354 C.3     1  UNL1        0.0792
@<TRIPOS>BOND
     1    13    14    2
     2    14    15    1
     3    15    16    2
     4    16    17    1
     5    17     1    1
     6     1     3    1
     7     3     4   ar
     8     4     5   ar
     9     5     6   ar
    10     6     7   ar
    11     7     8   ar
    12     8     9   ar
    13     9    10   ar
    14    10    11   ar
    15    11    12   ar
    16    17    18    2
    17    18    19    1
    18    19    20    2
    19    20    21    1
    20    21    13    1
    21    20    16    1
    22    12     3   ar
    23    11     6   ar
    24     1     2    1
@<TRIPOS>MOLECULE
*****
 21 24 0 0 0
SMALL
GASTEIGER

@<TRIPOS>ATOM
      1 N          61.3710   89.4851   12.0066 N.pl3   1  UNL1       -0.1958
      2 H          60.6574   89.7553   12.6288 H       1  UNL1        0.2986
      3 C          62.5866   90.3479   11.8394 C.ar    1  UNL1        0.1357
      4 C          62.8641   91.0052   10.5200 C.ar    1  UNL1        0.0402
      5 C          64.0796   91.8680   10.3527 C.ar    1  UNL1        0.0050
      6 C          65.0179   92.0734   11.5050 C.ar    1  UNL1        0.0194
      7 C          66.2335   92.9361   11.3378 C.ar    1  UNL1        0.0988
      8 N          67.1716   93.1415   12.4900 N.ar    1  UNL1       -0.2423
      9 C          66.8942   92.4842   13.8094 C.ar    1  UNL1        0.0989
     10 C          65.6786   91.6215   13.9766 C.ar    1  UNL1        0.0208
     11 C          64.7404   91.4161   12.8244 C.ar    1  UNL1        0.0064
     12 C          63.5248   90.5533   12.9916 C.ar    1  UNL1        0.0402
     13 C          59.4987   87.1698    7.2348 C.2     1  UNL1        0.0010
     14 C          59.4081   88.6123    7.6361 C.2     1  UNL1        0.0950
     15 N          59.9640   89.0600    8.9554 N.2     1  UNL1       -0.2354
     16 C          60.6104   88.0653    9.8733 C.2     1  UNL1        0.1834
     17 C          61.2426   88.2108   11.2258 C.2     1  UNL1        0.3707
     18 N          61.7239   86.8582   11.6605 N.2     1  UNL1        0.0819
     19 N          61.3891   85.8768   10.5765 N.2     1  UNL1       -0.0365
     20 C          60.7009   86.6228    9.4721 C.2     1  UNL1        0.1346
     21 C          60.1451   86.1750    8.1529 C.3     1  UNL1        0.0792
@<TRIPOS>BOND
     1    13    14    2
     2    14    15    1
     3    15    16    2
     4    16    17    1
     5    17     1    1
     6     1     3    1
     7     3     4   ar
     8     4     5   ar
     9     5     6   ar
    10     6     7   ar
    11     7     8   ar
    12     8     9   ar
    13     9    10   ar
    14    10    11   ar
    15    11    12   ar
    16    17    18    2
    17    18    19    1
    18    19    20    2
    19    20    21    1
    20    21    13    1
    21    20    16    1
    22    12     3   ar
    23    11     6   ar
    24     1     2    1
@<TRIPOS>MOLECULE
*****
 21 24 0 0 0
SMALL
GASTEIGER

@<TRIPOS>ATOM
      1 N          61.6451   88.1965   11.4807 N.pl3   1  UNL1       -0.1958
      2 H          60.7093   88.2695   11.7778 H       1  UNL1        0.2986
      3 C          62.5891   89.3439   11.6869 C.ar    1  UNL1        0.1357
      4 C          62.8420   90.3165   10.5733 C.ar    1  UNL1        0.0402
      5 C          63.7860   91.4638   10.7795 C.ar    1  UNL1        0.0050
      6 C          64.4771   91.6385   12.0994 C.ar    1  UNL1        0.0194
      7 C          65.4211   92.7858   12.3056 C.ar    1  UNL1        0.0988
      8 N          66.1121   92.9605   13.6254 N.ar    1  UNL1       -0.2423
      9 C          65.8592   91.9879   14.7390 C.ar    1  UNL1        0.0989
     10 C          64.9152   90.8406   14.5328 C.ar    1  UNL1        0.0208
     11 C          64.2242   90.6659   13.2130 C.ar    1  UNL1        0.0064
     12 C          63.2801   89.5186   13.0067 C.ar    1  UNL1        0.0402
     13 C          63.3349   82.9001   12.3348 C.2     1  UNL1        0.0010
     14 C          62.9067   83.8916   13.3759 C.2     1  UNL1        0.0950
     15 N          62.4836   85.2717   12.9681 N.2     1  UNL1       -0.2354
     16 C          62.4887   85.6604   11.5194 C.2     1  UNL1        0.1834
     17 C          62.1269   86.9380   10.8218 C.2     1  UNL1        0.3707
     18 N          62.3314   86.7363    9.3495 N.2     1  UNL1        0.0819
     19 N          62.8196   85.3339    9.1373 N.2     1  UNL1       -0.0365
     20 C          62.9169   84.6690   10.4784 C.2     1  UNL1        0.1346
     21 C          63.3400   83.2889   10.8860 C.3     1  UNL1        0.0792
@<TRIPOS>BOND
     1    13    14    2
     2    14    15    1
     3    15    16    2
     4    16    17    1
     5    17     1    1
     6     1     3    1
     7     3     4   ar
     8     4     5   ar
     9     5     6   ar
    10     6     7   ar
    11     7     8   ar
    12     8     9   ar
    13     9    10   ar
    14    10    11   ar
    15    11    12   ar
    16    17    18    2
    17    18    19    1
    18    19    20    2
    19    20    21    1
    20    21    13    1
    21    20    16    1
    22    12     3   ar
    23    11     6   ar
    24     1     2    1
@<TRIPOS>MOLECULE
*****
 21 24 0 0 0
SMALL
GASTEIGER

@<TRIPOS>ATOM
      1 N          61.7000   89.0278   11.8622 N.pl3   1  UNL1       -0.1958
      2 H          60.7913   89.2377   12.1775 H       1  UNL1        0.2986
      3 C          62.8529   89.8999   12.2629 C.ar    1  UNL1        0.1357
      4 C          63.4571   89.7634   13.6291 C.ar    1  UNL1        0.0402
      5 C          64.6100   90.6354   14.0298 C.ar    1  UNL1        0.0050
      6 C          65.1587   91.6439   13.0643 C.ar    1  UNL1        0.0194
      7 C          66.3115   92.5158   13.4650 C.ar    1  UNL1        0.0988
      8 N          66.8601   93.5242   12.4996 N.ar    1  UNL1       -0.2423
      9 C          66.2559   93.6606   11.1335 C.ar    1  UNL1        0.0989
     10 C          65.1031   92.7887   10.7328 C.ar    1  UNL1        0.0208
     11 C          64.5545   91.7803   11.6982 C.ar    1  UNL1        0.0064
     12 C          63.4016   90.9082   11.2975 C.ar    1  UNL1        0.0402
     13 C          63.4923   83.6991   11.6908 C.2     1  UNL1        0.0010
     14 C          63.4272   84.5929   12.8937 C.2     1  UNL1        0.0950
     15 N          62.9185   85.9974   12.7579 N.2     1  UNL1       -0.2354
     16 C          62.4748   86.5082   11.4191 C.2     1  UNL1        0.1834
     17 C          61.9318   87.8361   10.9812 C.2     1  UNL1        0.3707
     18 N          61.6612   87.7631    9.5076 N.2     1  UNL1        0.0819
     19 N          62.0370   86.3900    9.0348 N.2     1  UNL1       -0.0365
     20 C          62.5399   85.6145   10.2162 C.2     1  UNL1        0.1346
     21 C          63.0486   84.2100   10.3519 C.3     1  UNL1        0.0792
@<TRIPOS>BOND
     1    13    14    2
     2    14    15    1
     3    15    16    2
     4    16    17    1
     5    17     1    1
     6     1     3    1
     7     3     4   ar
     8     4     5   ar
     9     5     6   ar
    10     6     7   ar
    11     7     8   ar
    12     8     9   ar
    13     9    10   ar
    14    10    11   ar
    15    11    12   ar
    16    17    18    2
    17    18    19    1
    18    19    20    2
    19    20    21    1
    20    21    13    1
    21    20    16    1
    22    12     3   ar
    23    11     6   ar
    24     1     2    1
@<TRIPOS>MOLECULE
*****
 21 24 0 0 0
SMALL
GASTEIGER

@<TRIPOS>ATOM
      1 N          61.2580   87.7528   11.0974 N.pl3   1  UNL1       -0.1958
      2 H          60.2813   87.7468   11.2207 H       1  UNL1        0.2986
      3 C          61.9942   86.4645   10.8775 C.ar    1  UNL1        0.1357
      4 C          62.3859   86.0520    9.4896 C.ar    1  UNL1        0.0402
      5 C          63.1221   84.7638    9.2696 C.ar    1  UNL1        0.0050
      6 C          63.4667   83.8880   10.4377 C.ar    1  UNL1        0.0194
      7 C          64.2029   82.5998   10.2178 C.ar    1  UNL1        0.0988
      8 N          64.5474   81.7240   11.3858 N.ar    1  UNL1       -0.2423
      9 C          64.1558   82.1365   12.7738 C.ar    1  UNL1        0.0989
     10 C          63.4195   83.4248   12.9937 C.ar    1  UNL1        0.0208
     11 C          63.0750   84.3005   11.8257 C.ar    1  UNL1        0.0064
     12 C          62.3388   85.5888   12.0456 C.ar    1  UNL1        0.0402
     13 C          64.9459   90.8751   13.9761 C.2     1  UNL1        0.0010
     14 C          64.4288   89.5164   14.3457 C.2     1  UNL1        0.0950
     15 N          63.4411   88.8222   13.4555 N.2     1  UNL1       -0.2354
     16 C          62.9705   89.4866   12.1958 C.2     1  UNL1        0.1834
     17 C          62.0100   89.0503   11.1295 C.2     1  UNL1        0.3707
     18 N          61.9334   90.1394   10.1008 N.2     1  UNL1        0.0819
     19 N          62.8466   91.2488   10.5314 N.2     1  UNL1       -0.0365
     20 C          63.4876   90.8453   11.8262 C.2     1  UNL1        0.1346
     21 C          64.4753   91.5396   12.7162 C.3     1  UNL1        0.0792
@<TRIPOS>BOND
     1    13    14    2
     2    14    15    1
     3    15    16    2
     4    16    17    1
     5    17     1    1
     6     1     3    1
     7     3     4   ar
     8     4     5   ar
     9     5     6   ar
    10     6     7   ar
    11     7     8   ar
    12     8     9   ar
    13     9    10   ar
    14    10    11   ar
    15    11    12   ar
    16    17    18    2
    17    18    19    1
    18    19    20    2
    19    20    21    1
    20    21    13    1
    21    20    16    1
    22    12     3   ar
    23    11     6   ar
    24     1     2    1
@<TRIPOS>MOLECULE
*****
 21 24 0 0 0
SMALL
GASTEIGER

@<TRIPOS>ATOM
      1 N          63.0394   85.5190   12.2413 N.pl3   1  UNL1       -0.1958
      2 H          63.3677   85.8157   13.1208 H       1  UNL1        0.2986
      3 C          62.3414   86.4893   11.3349 C.ar    1  UNL1        0.1357
      4 C          62.5975   87.9609   11.4719 C.ar    1  UNL1        0.0402
      5 C          61.8995   88.9312   10.5657 C.ar    1  UNL1        0.0050
      6 C          60.9453   88.4299    9.5224 C.ar    1  UNL1        0.0194
      7 C          60.2474   89.4001    8.6161 C.ar    1  UNL1        0.0988
      8 N          59.2933   88.8988    7.5729 N.ar    1  UNL1       -0.2423
      9 C          59.0372   87.4272    7.4359 C.ar    1  UNL1        0.0989
     10 C          59.7352   86.4569    8.3422 C.ar    1  UNL1        0.0208
     11 C          60.6893   86.9582    9.3854 C.ar    1  UNL1        0.0064
     12 C          61.3873   85.9880   10.2917 C.ar    1  UNL1        0.0402
     13 C          62.0905   80.1286   13.5370 C.2     1  UNL1        0.0010
     14 C          61.6781   81.3346   14.3278 C.2     1  UNL1        0.0950
     15 N          62.0164   82.7089   13.8309 N.2     1  UNL1       -0.2354
     16 C          62.7669   82.8771   12.5431 C.2     1  UNL1        0.1834
     17 C          63.2373   84.0968   11.8075 C.2     1  UNL1        0.3707
     18 N          63.9404   83.6446   10.5620 N.2     1  UNL1        0.0819
     19 N          63.9045   82.1454   10.5279 N.2     1  UNL1       -0.0365
     20 C          63.1792   81.6710   11.7523 C.2     1  UNL1        0.1346
     21 C          62.8411   80.2968   12.2491 C.3     1  UNL1        0.0792
@<TRIPOS>BOND
     1    13    14    2
     2    14    15    1
     3    15    16    2
     4    16    17    1
     5    17     1    1
     6     1     3    1
     7     3     4   ar
     8     4     5   ar
     9     5     6   ar
    10     6     7   ar
    11     7     8   ar
    12     8     9   ar
    13     9    10   ar
    14    10    11   ar
    15    11    12   ar
    16    17    18    2
    17    18    19    1
    18    19    20    2
    19    20    21    1
    20    21    13    1
    21    20    16    1
    22    12     3   ar
    23    11     6   ar
    24     1     2    1
@<TRIPOS>MOLECULE
*****
 21 24 0 0 0
SMALL
GASTEIGER

@<TRIPOS>ATOM
      1 N          62.8554   85.6273    8.9558 N.pl3   1  UNL1       -0.1958
      2 H          63.4610   85.6651    8.1805 H       1  UNL1        0.2986
      3 C          63.1162   84.6509   10.0643 C.ar    1  UNL1        0.1357
      4 C          63.8651   83.3816    9.7850 C.ar    1  UNL1        0.0402
      5 C          64.1259   82.4053   10.8934 C.ar    1  UNL1        0.0050
      6 C          63.6379   82.6983   12.2813 C.ar    1  UNL1        0.0194
      7 C          63.8987   81.7219   13.3897 C.ar    1  UNL1        0.0988
      8 N          63.4107   82.0149   14.7775 N.ar    1  UNL1       -0.2423
      9 C          62.6619   83.2843   15.0568 C.ar    1  UNL1        0.0989
     10 C          62.4011   84.2606   13.9484 C.ar    1  UNL1        0.0208
     11 C          62.8891   83.9676   12.5606 C.ar    1  UNL1        0.0064
     12 C          62.6282   84.9439   11.4521 C.ar    1  UNL1        0.0402
     13 C          60.9394   90.5309   10.9358 C.2     1  UNL1        0.0010
     14 C          62.3128   89.9563   11.1193 C.2     1  UNL1        0.0950
     15 N          62.6556   88.6256   10.5179 N.2     1  UNL1       -0.2354
     16 C          61.6251   87.8695    9.7330 C.2     1  UNL1        0.1834
     17 C          61.6719   86.5460    9.0285 C.2     1  UNL1        0.3707
     18 N          60.3273   86.3025    8.4096 N.2     1  UNL1        0.0819
     19 N          59.4496   87.4756    8.7316 N.2     1  UNL1       -0.0365
     20 C          60.2516   88.4440    9.5495 C.2     1  UNL1        0.1346
     21 C          59.9088   89.7746   10.1508 C.3     1  UNL1        0.0792
@<TRIPOS>BOND
     1    13    14    2
     2    14    15    1
     3    15    16    2
     4    16    17    1
     5    17     1    1
     6     1     3    1
     7     3     4   ar
     8     4     5   ar
     9     5     6   ar
    10     6     7   ar
    11     7     8   ar
    12     8     9   ar
    13     9    10   ar
    14    10    11   ar
    15    11    12   ar
    16    17    18    2
    17    18    19    1
    18    19    20    2
    19    20    21    1
    20    21    13    1
    21    20    16    1
    22    12     3   ar
    23    11     6   ar
    24     1     2    1
@<TRIPOS>MOLECULE
*****
 21 24 0 0 0
SMALL
GASTEIGER

@<TRIPOS>ATOM
      1 N          63.4588   86.3187   12.7603 N.pl3   1  UNL1       -0.1958
      2 H          64.2757   86.7368   13.1167 H       1  UNL1        0.2986
      3 C          62.6408   87.0330   11.7254 C.ar    1  UNL1        0.1357
      4 C          62.6002   88.5323   11.7053 C.ar    1  UNL1        0.0402
      5 C          61.7823   89.2466   10.6705 C.ar    1  UNL1        0.0050
      6 C          61.0049   88.4615    9.6558 C.ar    1  UNL1        0.0194
      7 C          60.1870   89.1758    8.6211 C.ar    1  UNL1        0.0988
      8 N          59.4097   88.3908    7.6065 N.ar    1  UNL1       -0.2423
      9 C          59.4503   86.8915    7.6266 C.ar    1  UNL1        0.0989
     10 C          60.2682   86.1772    8.6614 C.ar    1  UNL1        0.0208
     11 C          61.0455   86.9622    9.6760 C.ar    1  UNL1        0.0064
     12 C          61.8635   86.2479   10.7108 C.ar    1  UNL1        0.0402
     13 C          63.0799   80.8545   11.4815 C.2     1  UNL1        0.0010
     14 C          63.6201   81.9511   10.6122 C.2     1  UNL1        0.0950
     15 N          63.6465   83.3636   11.1164 N.2     1  UNL1       -0.2354
     16 C          63.1327   83.6794   12.4897 C.2     1  UNL1        0.1834
     17 C          63.0320   84.9674   13.2520 C.2     1  UNL1        0.3707
     18 N          62.4295   84.6667   14.5925 N.2     1  UNL1        0.0819
     19 N          62.1579   83.1930   14.6585 N.2     1  UNL1       -0.0365
     20 C          62.5924   82.5828   13.3590 C.2     1  UNL1        0.1346
     21 C          62.5660   81.1704   12.8550 C.3     1  UNL1        0.0792
@<TRIPOS>BOND
     1    13    14    2
     2    14    15    1
     3    15    16    2
     4    16    17    1
     5    17     1    1
     6     1     3    1
     7     3     4   ar
     8     4     5   ar
     9     5     6   ar
    10     6     7   ar
    11     7     8   ar
    12     8     9   ar
    13     9    10   ar
    14    10    11   ar
    15    11    12   ar
    16    17    18    2
    17    18    19    1
    18    19    20    2
    19    20    21    1
    20    21    13    1
    21    20    16    1
    22    12     3   ar
    23    11     6   ar
    24     1     2    1
@<TRIPOS>MOLECULE
*****
 21 24 0 0 0
SMALL
GASTEIGER

@<TRIPOS>ATOM
      1 N          63.5352   88.8400   13.2857 N.pl3   1  UNL1       -0.1958
      2 H          63.3486   89.2087   12.3921 H       1  UNL1        0.2986
      3 C          63.6900   87.3593   13.4687 C.ar    1  UNL1        0.1357
      4 C          64.4457   86.8244   14.6489 C.ar    1  UNL1        0.0402
      5 C          64.6005   85.3437   14.8320 C.ar    1  UNL1        0.0050
      6 C          63.9996   84.3978   13.8348 C.ar    1  UNL1        0.0194
      7 C          64.1545   82.9171   14.0178 C.ar    1  UNL1        0.0988
      8 N          63.5536   81.9713   13.0207 N.ar    1  UNL1       -0.2423
      9 C          62.7980   82.5062   11.8404 C.ar    1  UNL1        0.0989
     10 C          62.6432   83.9868   11.6574 C.ar    1  UNL1        0.0208
     11 C          63.2440   84.9327   12.6546 C.ar    1  UNL1        0.0064
     12 C          63.0892   86.4134   12.4715 C.ar    1  UNL1        0.0402
     13 C          66.6708   92.8442   15.6880 C.2     1  UNL1        0.0010
     14 C          66.9416   92.1399   14.3916 C.2     1  UNL1        0.0950
     15 N          65.9923   91.0895   13.8961 N.2     1  UNL1       -0.2354
     16 C          64.7722   90.7434   14.6971 C.2     1  UNL1        0.1834
     17 C          63.6647   89.7590   14.4642 C.2     1  UNL1        0.3707
     18 N          62.7093   89.8548   15.6167 N.2     1  UNL1        0.0819
     19 N          63.2265   90.8985   16.5618 N.2     1  UNL1       -0.0365
     20 C          64.5014   91.4477   15.9935 C.2     1  UNL1        0.1346
     21 C          65.4506   92.4980   16.4890 C.3     1  UNL1        0.0792
@<TRIPOS>BOND
     1    13    14    2
     2    14    15    1
     3    15    16    2
     4    16    17    1
     5    17     1    1
     6     1     3    1
     7     3     4   ar
     8     4     5   ar
     9     5     6   ar
    10     6     7   ar
    11     7     8   ar
    12     8     9   ar
    13     9    10   ar
    14    10    11   ar
    15    11    12   ar
    16    17    18    2
    17    18    19    1
    18    19    20    2
    19    20    21    1
    20    21    13    1
    21    20    16    1
    22    12     3   ar
    23    11     6   ar
    24     1     2    1
