@<TRIPOS>MOLECULE
*****
 42 47 0 0 0
SMALL
GASTEIGER

@<TRIPOS>ATOM
      1 C          61.2682   85.4388    9.7018 C.3     1  UNL1        0.1306
      2 N          62.0806   85.6386   10.9468 N.ar    1  UNL1       -0.3218
      3 C          62.6811   84.5540   11.7912 C.ar    1  UNL1        0.0616
      4 C          62.6609   83.0592   11.6685 C.ar    1  UNL1        0.0172
      5 C          63.3664   82.2135   12.6869 C.ar    1  UNL1        0.0016
      6 C          64.0920   82.8627   13.8280 C.ar    1  UNL1        0.0046
      7 C          64.1122   84.3575   13.9507 C.ar    1  UNL1        0.0560
      8 C          63.4067   85.2031   12.9323 C.ar    1  UNL1        0.0394
      9 C          63.2547   86.6889   12.7931 C.ar    1  UNL1        0.1027
     10 N          63.7567   87.8315   13.6251 N.ar    1  UNL1       -0.2277
     11 C          63.4390   89.2433   13.2301 C.ar    1  UNL1        0.1567
     12 N          62.6194   89.5125   12.0030 N.ar    1  UNL1       -0.2131
     13 C          62.1175   88.3698   11.1709 C.ar    1  UNL1        0.1505
     14 C          62.4351   86.9580   11.5660 C.ar    1  UNL1        0.1099
     15 N          61.2979   88.6390    9.9438 N.pl3   1  UNL1       -0.2892
     16 C          61.1989   87.6011    8.8655 C.3     1  UNL1        0.1095
     17 C          60.3793   87.8703    7.6383 C.3     1  UNL1        0.0939
     18 N          59.6586   89.1774    7.4896 N.3     1  UNL1       -0.2695
     19 C          59.7576   90.2153    8.5680 C.3     1  UNL1        0.0939
     20 C          60.5772   89.9461    9.7950 C.3     1  UNL1        0.1095
     21 C          58.8390   89.4465    6.2625 C.3     1  UNL1        0.0769
     22 C          58.6799   90.8509    5.7600 C.3     1  UNL1        0.0437
     23 C          59.6427   91.3994    4.7490 C.ar    1  UNL1       -0.0184
     24 C          59.2011   92.4710    3.7971 C.ar    1  UNL1       -0.0018
     25 C          60.1640   93.0195    2.7861 C.ar    1  UNL1        0.0316
     26 C          61.5685   92.4963    2.7272 C.ar    1  UNL1        0.1674
     27 F          62.5314   93.0448    1.7162 F       1  UNL1       -0.2018
     28 C          62.0102   91.4246    3.6792 C.ar    1  UNL1        0.1671
     29 F          63.4147   90.9013    3.6202 F       1  UNL1       -0.2018
     30 C          61.0473   90.8761    4.6901 C.ar    1  UNL1        0.0277
     31 C          64.8378   85.0066   15.0918 C.2     1  UNL1        0.2428
     32 N          66.2996   85.3200   14.9698 N.am    1  UNL1       -0.3253
     33 O          64.1017   85.3423   16.3548 O.2     1  UNL1       -0.2704
     34 H          66.7828   85.0997   14.1408 H       1  UNL1        0.1453
     35 H          66.7758   85.7461   15.7188 H       1  UNL1        0.1453
     36 C          63.9411   90.3860   14.0623 C.3     1  UNL1        0.1390
     37 N          65.0687   91.2394   13.5621 N.3     1  UNL1       -0.2620
     38 C          64.9103   92.0232   12.2931 C.3     1  UNL1        0.1050
     39 C          66.0379   92.8766   11.7929 C.3     1  UNL1        0.1595
     40 O          67.3239   92.9462   12.5619 O.3     1  UNL1       -0.3508
     41 C          67.4823   92.1624   13.8310 C.3     1  UNL1        0.1595
     42 C          66.3547   91.3090   14.3310 C.3     1  UNL1        0.1050
@<TRIPOS>BOND
     1     1     2    1
     2     2     3   ar
     3     3     4   ar
     4     4     5   ar
     5     5     6   ar
     6     6     7   ar
     7     7    31    1
     8    31    32   am
     9    31    33    2
    10     7     8   ar
    11     8     9   ar
    12     9    10   ar
    13    10    11   ar
    14    11    36    1
    15    36    37    1
    16    37    38    1
    17    38    39    1
    18    39    40    1
    19    40    41    1
    20    41    42    1
    21    11    12   ar
    22    12    13   ar
    23    13    15    1
    24    15    16    1
    25    16    17    1
    26    17    18    1
    27    18    21    1
    28    21    22    1
    29    22    23    1
    30    23    24   ar
    31    24    25   ar
    32    25    26   ar
    33    26    27    1
    34    26    28   ar
    35    28    29    1
    36    28    30   ar
    37    18    19    1
    38    19    20    1
    39    13    14   ar
    40    14     2   ar
    41     8     3   ar
    42    14     9   ar
    43    42    37    1
    44    20    15    1
    45    30    23   ar
    46    32    34    1
    47    32    35    1
@<TRIPOS>MOLECULE
*****
 42 47 0 0 0
SMALL
GASTEIGER

@<TRIPOS>ATOM
      1 C          58.4677   93.6811   -0.9770 C.3     1  UNL1        0.1306
      2 N          59.9486   93.8769   -0.8400 N.ar    1  UNL1       -0.3218
      3 C          60.7805   93.5051    0.3516 C.ar    1  UNL1        0.0616
      4 C          60.4261   92.8757    1.6662 C.ar    1  UNL1        0.0172
      5 C          61.4947   92.6185    2.6868 C.ar    1  UNL1        0.0016
      6 C          62.9178   92.9907    2.3929 C.ar    1  UNL1        0.0046
      7 C          63.2722   93.6200    1.0783 C.ar    1  UNL1        0.0560
      8 C          62.2036   93.8772    0.0576 C.ar    1  UNL1        0.0394
      9 C          62.2511   94.4791   -1.3155 C.ar    1  UNL1        0.1027
     10 N          63.3834   95.0273   -2.1324 N.ar    1  UNL1       -0.2277
     11 C          63.1220   95.5753   -3.5041 C.ar    1  UNL1        0.1567
     12 N          61.7284   95.5751   -4.0589 N.ar    1  UNL1       -0.2131
     13 C          60.5961   95.0269   -3.2419 C.ar    1  UNL1        0.1505
     14 C          60.8575   94.4789   -1.8703 C.ar    1  UNL1        0.1099
     15 N          59.2025   95.0267   -3.7967 N.pl3   1  UNL1       -0.2892
     16 C          58.6816   93.8177   -4.5156 C.3     1  UNL1        0.1095
     17 C          57.2879   93.8176   -5.0704 C.3     1  UNL1        0.0939
     18 N          56.4151   95.0264   -4.9061 N.3     1  UNL1       -0.2695
     19 C          56.9360   96.2354   -4.1871 C.3     1  UNL1        0.0939
     20 C          58.3296   96.2355   -3.6324 C.3     1  UNL1        0.1095
     21 C          55.0215   95.0262   -5.4609 C.3     1  UNL1        0.0769
     22 C          54.2847   96.3206   -5.6383 C.3     1  UNL1        0.0437
     23 C          52.7891   96.3536   -5.5280 C.ar    1  UNL1       -0.0184
     24 C          51.9430   96.2107   -6.7583 C.ar    1  UNL1       -0.0018
     25 C          50.4474   96.2437   -6.6479 C.ar    1  UNL1        0.0316
     26 C          49.7980   96.4196   -5.3072 C.ar    1  UNL1        0.1674
     27 F          48.3024   96.4525   -5.1969 F       1  UNL1       -0.2018
     28 C          50.6441   96.5624   -4.0769 C.ar    1  UNL1        0.1671
     29 F          49.9947   96.7383   -2.7363 F       1  UNL1       -0.2018
     30 C          52.1396   96.5295   -4.1873 C.ar    1  UNL1        0.0277
     31 C          64.6953   93.9922    0.7844 C.2     1  UNL1        0.2428
     32 N          65.7239   92.9199    0.5791 N.am    1  UNL1       -0.3253
     33 O          65.0897   95.4367    0.6957 O.2     1  UNL1       -0.2704
     34 H          65.4650   91.9719    0.6374 H       1  UNL1        0.1453
     35 H          66.6578   93.1642    0.3862 H       1  UNL1        0.1453
     36 C          64.2544   96.1235   -4.3210 C.3     1  UNL1        0.1390
     37 N          65.0398   95.2146   -5.2194 N.3     1  UNL1       -0.2620
     38 C          64.8143   93.7326   -5.1695 C.3     1  UNL1        0.1050
     39 C          65.5997   92.8238   -6.0679 C.3     1  UNL1        0.1595
     40 O          66.6107   93.3970   -7.0162 O.3     1  UNL1       -0.3508
     41 C          66.8362   94.8792   -7.0661 C.3     1  UNL1        0.1595
     42 C          66.0508   95.7879   -6.1677 C.3     1  UNL1        0.1050
@<TRIPOS>BOND
     1     1     2    1
     2     2     3   ar
     3     3     4   ar
     4     4     5   ar
     5     5     6   ar
     6     6     7   ar
     7     7    31    1
     8    31    32   am
     9    31    33    2
    10     7     8   ar
    11     8     9   ar
    12     9    10   ar
    13    10    11   ar
    14    11    36    1
    15    36    37    1
    16    37    38    1
    17    38    39    1
    18    39    40    1
    19    40    41    1
    20    41    42    1
    21    11    12   ar
    22    12    13   ar
    23    13    15    1
    24    15    16    1
    25    16    17    1
    26    17    18    1
    27    18    21    1
    28    21    22    1
    29    22    23    1
    30    23    24   ar
    31    24    25   ar
    32    25    26   ar
    33    26    27    1
    34    26    28   ar
    35    28    29    1
    36    28    30   ar
    37    18    19    1
    38    19    20    1
    39    13    14   ar
    40    14     2   ar
    41     8     3   ar
    42    14     9   ar
    43    42    37    1
    44    20    15    1
    45    30    23   ar
    46    32    34    1
    47    32    35    1
@<TRIPOS>MOLECULE
*****
 42 47 0 0 0
SMALL
GASTEIGER

@<TRIPOS>ATOM
      1 C          61.7094   85.4323    8.8077 C.3     1  UNL1        0.1306
      2 N          62.3640   85.4429   10.1573 N.ar    1  UNL1       -0.3218
      3 C          63.0662   84.2868   10.8057 C.ar    1  UNL1        0.0616
      4 C          63.3140   82.8794   10.3499 C.ar    1  UNL1        0.0172
      5 C          64.0631   81.9260   11.2330 C.ar    1  UNL1        0.0016
      6 C          64.5642   82.3800   12.5720 C.ar    1  UNL1        0.0046
      7 C          64.3164   83.7874   13.0277 C.ar    1  UNL1        0.0560
      8 C          63.5674   84.7408   12.1446 C.ar    1  UNL1        0.0394
      9 C          63.1749   86.1774   12.3237 C.ar    1  UNL1        0.1027
     10 N          63.3986   87.1466   13.4465 N.ar    1  UNL1       -0.2277
     11 C          62.8786   88.5496   13.3410 C.ar    1  UNL1        0.1567
     12 N          62.1349   88.9835   12.1128 N.ar    1  UNL1       -0.2131
     13 C          61.9111   88.0144   10.9900 C.ar    1  UNL1        0.1505
     14 C          62.4311   86.6113   11.0955 C.ar    1  UNL1        0.1099
     15 N          61.1673   88.4483    9.7618 N.pl3   1  UNL1       -0.2892
     16 C          60.0409   87.6113    9.2323 C.3     1  UNL1        0.1095
     17 C          59.2971   88.0453    8.0041 C.3     1  UNL1        0.0939
     18 N          59.6799   89.3162    7.3054 N.3     1  UNL1       -0.2695
     19 C          60.8064   90.1533    7.8349 C.3     1  UNL1        0.0939
     20 C          61.5501   89.7193    9.0631 C.3     1  UNL1        0.1095
     21 C          58.9361   89.7501    6.0772 C.3     1  UNL1        0.0769
     22 C          58.9857   91.1834    5.6375 C.3     1  UNL1        0.0437
     23 C          59.9466   91.6064    4.5662 C.ar    1  UNL1       -0.0184
     24 C          59.5070   92.5664    3.5008 C.ar    1  UNL1       -0.0018
     25 C          60.4680   92.9894    2.4295 C.ar    1  UNL1        0.0316
     26 C          61.8686   92.4524    2.4236 C.ar    1  UNL1        0.1674
     27 F          62.8295   92.8754    1.3523 F       1  UNL1       -0.2018
     28 C          62.3082   91.4924    3.4890 C.ar    1  UNL1        0.1671
     29 F          63.7088   90.9554    3.4832 F       1  UNL1       -0.2018
     30 C          61.3473   91.0694    4.5603 C.ar    1  UNL1        0.0277
     31 C          64.8176   84.2414   14.3667 C.2     1  UNL1        0.2428
     32 N          64.6003   83.3849   15.5787 N.am    1  UNL1       -0.3253
     33 O          65.5361   85.5520   14.4935 O.2     1  UNL1       -0.2704
     34 H          64.1287   82.5247   15.4954 H       1  UNL1        0.1453
     35 H          64.9292   83.6829   16.4574 H       1  UNL1        0.1453
     36 C          63.1024   89.5188   14.4639 C.3     1  UNL1        0.1390
     37 N          64.0547   90.6642   14.2874 N.3     1  UNL1       -0.2620
     38 C          64.6865   91.3059   15.4869 C.3     1  UNL1        0.1050
     39 C          65.6388   92.4513   15.3104 C.3     1  UNL1        0.1595
     40 O          65.9592   92.9550   13.9344 O.3     1  UNL1       -0.3508
     41 C          65.3273   92.3133   12.7348 C.3     1  UNL1        0.1595
     42 C          64.3751   91.1679   12.9114 C.3     1  UNL1        0.1050
@<TRIPOS>BOND
     1     1     2    1
     2     2     3   ar
     3     3     4   ar
     4     4     5   ar
     5     5     6   ar
     6     6     7   ar
     7     7    31    1
     8    31    32   am
     9    31    33    2
    10     7     8   ar
    11     8     9   ar
    12     9    10   ar
    13    10    11   ar
    14    11    36    1
    15    36    37    1
    16    37    38    1
    17    38    39    1
    18    39    40    1
    19    40    41    1
    20    41    42    1
    21    11    12   ar
    22    12    13   ar
    23    13    15    1
    24    15    16    1
    25    16    17    1
    26    17    18    1
    27    18    21    1
    28    21    22    1
    29    22    23    1
    30    23    24   ar
    31    24    25   ar
    32    25    26   ar
    33    26    27    1
    34    26    28   ar
    35    28    29    1
    36    28    30   ar
    37    18    19    1
    38    19    20    1
    39    13    14   ar
    40    14     2   ar
    41     8     3   ar
    42    14     9   ar
    43    42    37    1
    44    20    15    1
    45    30    23   ar
    46    32    34    1
    47    32    35    1
@<TRIPOS>MOLECULE
*****
 42 47 0 0 0
SMALL
GASTEIGER

@<TRIPOS>ATOM
      1 C          61.5452   90.3571   11.6401 C.3     1  UNL1        0.1306
      2 N          61.5589   89.0797   10.8540 N.ar    1  UNL1       -0.3218
      3 C          60.8853   88.8498    9.5336 C.ar    1  UNL1        0.0616
      4 C          60.0584   89.7451    8.6593 C.ar    1  UNL1        0.0172
      5 C          59.5048   89.2266    7.3652 C.ar    1  UNL1        0.0016
      6 C          59.7782   87.8128    6.9454 C.ar    1  UNL1        0.0046
      7 C          60.6052   86.9174    7.8197 C.ar    1  UNL1        0.0560
      8 C          61.1587   87.4359    9.1138 C.ar    1  UNL1        0.0394
      9 C          62.0013   86.7921   10.1747 C.ar    1  UNL1        0.1027
     10 N          62.5752   85.4119   10.3004 N.ar    1  UNL1       -0.2277
     11 C          63.3965   85.0477   11.5016 C.ar    1  UNL1        0.1567
     12 N          63.6439   86.0636   12.5771 N.ar    1  UNL1       -0.2131
     13 C          63.0699   87.4438   12.4514 C.ar    1  UNL1        0.1505
     14 C          62.2486   87.8080   11.2502 C.ar    1  UNL1        0.1099
     15 N          63.3173   88.4597   13.5269 N.pl3   1  UNL1       -0.2892
     16 C          63.6367   89.8783   13.1594 C.3     1  UNL1        0.1095
     17 C          63.8841   90.8943   14.2350 C.3     1  UNL1        0.0939
     18 N          63.8119   90.4914   15.6781 N.3     1  UNL1       -0.2695
     19 C          63.4924   89.0726   16.0456 C.3     1  UNL1        0.0939
     20 C          63.2451   88.0568   14.9701 C.3     1  UNL1        0.1095
     21 C          64.0593   91.5073   16.7536 C.3     1  UNL1        0.0769
     22 C          64.8965   92.7177   16.4638 C.3     1  UNL1        0.0437
     23 C          66.2228   92.5660   15.7798 C.ar    1  UNL1       -0.0184
     24 C          67.4870   92.5639   16.5870 C.ar    1  UNL1       -0.0018
     25 C          68.8134   92.4122   15.9029 C.ar    1  UNL1        0.0316
     26 C          68.8754   92.2627   14.4117 C.ar    1  UNL1        0.1674
     27 F          70.2017   92.1110   13.7277 F       1  UNL1       -0.2018
     28 C          67.6111   92.2648   13.6045 C.ar    1  UNL1        0.1671
     29 F          67.6732   92.1153   12.1132 F       1  UNL1       -0.2018
     30 C          66.2849   92.4165   14.2885 C.ar    1  UNL1        0.0277
     31 C          60.8786   85.5035    7.3999 C.2     1  UNL1        0.2428
     32 N          62.2745   84.9585    7.4648 N.am    1  UNL1       -0.3253
     33 O          59.7560   84.6347    6.9151 O.2     1  UNL1       -0.2704
     34 H          63.0113   85.5287    7.7829 H       1  UNL1        0.1453
     35 H          62.4539   84.0305    7.1892 H       1  UNL1        0.1453
     36 C          63.9705   83.6675   11.6273 C.3     1  UNL1        0.1390
     37 N          63.2454   82.6233   12.4234 N.3     1  UNL1       -0.2620
     38 C          62.5826   82.9927   13.7173 C.3     1  UNL1        0.1050
     39 C          61.8575   81.9486   14.5134 C.3     1  UNL1        0.1595
     40 O          61.7953   80.5349   14.0157 O.3     1  UNL1       -0.3508
     41 C          62.4581   80.1655   12.7217 C.3     1  UNL1        0.1595
     42 C          63.1831   81.2097   11.9257 C.3     1  UNL1        0.1050
@<TRIPOS>BOND
     1     1     2    1
     2     2     3   ar
     3     3     4   ar
     4     4     5   ar
     5     5     6   ar
     6     6     7   ar
     7     7    31    1
     8    31    32   am
     9    31    33    2
    10     7     8   ar
    11     8     9   ar
    12     9    10   ar
    13    10    11   ar
    14    11    36    1
    15    36    37    1
    16    37    38    1
    17    38    39    1
    18    39    40    1
    19    40    41    1
    20    41    42    1
    21    11    12   ar
    22    12    13   ar
    23    13    15    1
    24    15    16    1
    25    16    17    1
    26    17    18    1
    27    18    21    1
    28    21    22    1
    29    22    23    1
    30    23    24   ar
    31    24    25   ar
    32    25    26   ar
    33    26    27    1
    34    26    28   ar
    35    28    29    1
    36    28    30   ar
    37    18    19    1
    38    19    20    1
    39    13    14   ar
    40    14     2   ar
    41     8     3   ar
    42    14     9   ar
    43    42    37    1
    44    20    15    1
    45    30    23   ar
    46    32    34    1
    47    32    35    1
