@<TRIPOS>MOLECULE
*****
 51 56 0 0 0
SMALL
GASTEIGER

@<TRIPOS>ATOM
      1 N          60.9646   87.0404   10.8638 N.am    1  UNL1       -0.2803
      2 C          62.0859   86.0467   10.7897 C.2     1  UNL1        0.2508
      3 O          62.8625   85.8859    9.5164 O.2     1  UNL1       -0.2698
      4 H          60.4549   87.1459   11.6994 H       1  UNL1        0.1552
      5 C          59.9311   89.5390    7.2666 C.ar    1  UNL1        0.0480
      6 C          60.7105   90.1401    8.3985 C.ar    1  UNL1        0.0158
      7 C          61.0550   89.3072    9.5975 C.ar    1  UNL1        0.0159
      8 C          60.6201   87.8732    9.6647 C.ar    1  UNL1        0.0506
      9 C          59.8407   87.2721    8.5328 C.ar    1  UNL1        0.0159
     10 C          59.4962   88.1050    7.3338 C.ar    1  UNL1        0.0158
     11 N          58.8977   92.0376    3.6696 N.3     1  UNL1       -0.2660
     12 C          57.8129   91.5667    4.5925 C.3     1  UNL1        0.0941
     13 C          58.1574   90.7339    5.7915 C.3     1  UNL1        0.1081
     14 N          59.5866   90.3718    6.0676 N.pl3   1  UNL1       -0.3046
     15 C          60.6713   90.8426    5.1448 C.3     1  UNL1        0.1081
     16 C          60.3269   91.6755    3.9457 C.3     1  UNL1        0.0941
     17 C          58.5532   92.8704    2.4706 C.3     1  UNL1        0.0993
     18 C          61.7729   94.0726   -0.4343 C.ar    1  UNL1        0.1724
     19 C          60.9732   92.8265   -0.6745 C.ar    1  UNL1        0.0398
     20 C          59.9000   92.4258    0.2938 C.ar    1  UNL1        0.0004
     21 C          59.6265   93.2712    1.5023 C.ar    1  UNL1       -0.0029
     22 C          60.4261   94.5173    1.7425 C.ar    1  UNL1        0.0371
     23 C          61.4993   94.9180    0.7742 C.ar    1  UNL1        0.1721
     24 C          63.2368   93.5462   -2.5152 C.3     1  UNL1        0.2526
     25 O          62.8462   94.4733   -1.4026 O.3     1  UNL1       -0.4684
     26 O          62.2991   96.1641    1.0144 O.3     1  UNL1       -0.4684
     27 C          63.6731   96.0705    1.6087 C.3     1  UNL1        0.2526
     28 C          62.4304   85.2139   11.9886 C.ar    1  UNL1        0.0703
     29 C          61.9039   83.8142   12.1059 C.ar    1  UNL1        0.0458
     30 C          62.2485   82.9813   13.3050 C.ar    1  UNL1        0.1726
     31 C          63.1195   83.5481   14.3867 C.ar    1  UNL1        0.1736
     32 C          63.6459   84.9478   14.2693 C.ar    1  UNL1        0.0549
     33 C          63.3014   85.7807   13.0703 C.ar    1  UNL1        0.0582
     34 N          63.8279   87.1803   12.9531 N.am    1  UNL1       -0.2801
     35 C          63.9351   88.0460   14.1733 C.2     1  UNL1        0.2510
     36 O          63.5158   87.5121   15.5109 O.2     1  UNL1       -0.2698
     37 H          64.1031   87.5308   12.0752 H       1  UNL1        0.1552
     38 C          64.4616   89.4457   14.0560 C.ar    1  UNL1        0.0728
     39 C          63.7766   90.4318   13.1568 C.ar    1  UNL1        0.1033
     40 N          64.3030   91.8314   13.0394 N.ar    1  UNL1       -0.2437
     41 C          65.5145   92.2451   13.8213 C.ar    1  UNL1        0.0813
     42 C          66.0409   93.6447   13.7039 C.ar    1  UNL1        0.0191
     43 C          67.2524   94.0583   14.4857 C.ar    1  UNL1        0.0015
     44 C          67.9374   93.0723   15.3849 C.ar    1  UNL1        0.0001
     45 C          67.4109   91.6727   15.5023 C.ar    1  UNL1        0.0015
     46 C          66.1995   91.2591   14.7205 C.ar    1  UNL1        0.0178
     47 C          65.6730   89.8594   14.8378 C.ar    1  UNL1        0.0076
     48 O          61.7220   81.5817   13.4222 O.3     1  UNL1       -0.4684
     49 C          62.5346   80.4294   12.9106 C.3     1  UNL1        0.2526
     50 O          63.4640   82.7153   15.5857 O.3     1  UNL1       -0.4683
     51 C          64.7118   81.8827   15.5871 C.3     1  UNL1        0.2526
@<TRIPOS>BOND
     1    24    25    1
     2    25    18    1
     3    18    19   ar
     4    19    20   ar
     5    20    21   ar
     6    21    17    1
     7    17    11    1
     8    11    12    1
     9    12    13    1
    10    13    14    1
    11    14     5    1
    12     5     6   ar
    13     6     7   ar
    14     7     8   ar
    15     8     1    1
    16     1     2   am
    17     2     3    2
    18     2    28    1
    19    28    29   ar
    20    29    30   ar
    21    30    48    1
    22    48    49    1
    23    30    31   ar
    24    31    50    1
    25    50    51    1
    26    31    32   ar
    27    32    33   ar
    28    33    34    1
    29    34    35   am
    30    35    36    2
    31    35    38    1
    32    38    39   ar
    33    39    40   ar
    34    40    41   ar
    35    41    42   ar
    36    42    43   ar
    37    43    44   ar
    38    44    45   ar
    39    45    46   ar
    40    46    47   ar
    41     8     9   ar
    42     9    10   ar
    43    14    15    1
    44    15    16    1
    45    21    22   ar
    46    22    23   ar
    47    23    26    1
    48    26    27    1
    49    23    18   ar
    50    16    11    1
    51    10     5   ar
    52    33    28   ar
    53    47    38   ar
    54    46    41   ar
    55     1     4    1
    56    34    37    1
@<TRIPOS>MOLECULE
*****
 51 56 0 0 0
SMALL
GASTEIGER

@<TRIPOS>ATOM
      1 N          61.0107   87.1847   10.9996 N.am    1  UNL1       -0.2803
      2 C          62.1114   86.1677   10.9347 C.2     1  UNL1        0.2508
      3 O          62.8596   85.9532    9.6524 O.2     1  UNL1       -0.2698
      4 H          60.5196   87.3255   11.8412 H       1  UNL1        0.1552
      5 C          59.9533   89.5920    7.3476 C.ar    1  UNL1        0.0480
      6 C          60.7681   90.2114    8.4442 C.ar    1  UNL1        0.0158
      7 C          61.1205   89.4090    9.6615 C.ar    1  UNL1        0.0159
      8 C          60.6582   87.9871    9.7823 C.ar    1  UNL1        0.0506
      9 C          59.8435   87.3677    8.6857 C.ar    1  UNL1        0.0159
     10 C          59.4910   88.1701    7.4683 C.ar    1  UNL1        0.0158
     11 N          58.8960   91.9993    3.6956 N.3     1  UNL1       -0.2660
     12 C          57.8150   91.5312    4.6242 C.3     1  UNL1        0.0941
     13 C          58.1674   90.7287    5.8415 C.3     1  UNL1        0.1081
     14 N          59.6009   90.3944    6.1303 N.pl3   1  UNL1       -0.3046
     15 C          60.6819   90.8625    5.2017 C.3     1  UNL1        0.1081
     16 C          60.3295   91.6650    3.9844 C.3     1  UNL1        0.0941
     17 C          58.5436   92.8017    2.4783 C.3     1  UNL1        0.0993
     18 C          61.7780   94.1334   -0.3528 C.ar    1  UNL1        0.1724
     19 C          61.0466   92.8476   -0.6012 C.ar    1  UNL1        0.0398
     20 C          59.9685   92.4037    0.3425 C.ar    1  UNL1        0.0004
     21 C          59.6218   93.2457    1.5346 C.ar    1  UNL1       -0.0029
     22 C          60.3532   94.5315    1.7829 C.ar    1  UNL1        0.0371
     23 C          61.4313   94.9753    0.8392 C.ar    1  UNL1        0.1721
     24 C          63.4400   93.6056   -2.2788 C.3     1  UNL1        0.2526
     25 O          62.8561   94.5774   -1.2965 O.3     1  UNL1       -0.4684
     26 O          62.1627   96.2612    1.0876 O.3     1  UNL1       -0.4684
     27 C          63.5413   96.2378    1.6784 C.3     1  UNL1        0.2526
     28 C          62.4639   85.3653   12.1520 C.ar    1  UNL1        0.0703
     29 C          61.9110   83.9816   12.3241 C.ar    1  UNL1        0.0458
     30 C          62.2635   83.1791   13.5415 C.ar    1  UNL1        0.1726
     31 C          63.1689   83.7604   14.5866 C.ar    1  UNL1        0.1736
     32 C          63.7218   85.1442   14.4145 C.ar    1  UNL1        0.0549
     33 C          63.3693   85.9466   13.1972 C.ar    1  UNL1        0.0582
     34 N          63.9222   87.3303   13.0250 N.am    1  UNL1       -0.2801
     35 C          63.9797   88.2660   14.1960 C.2     1  UNL1        0.2510
     36 O          63.4843   87.8181   15.5390 O.2     1  UNL1       -0.2698
     37 H          64.2474   87.6243   12.1435 H       1  UNL1        0.1552
     38 C          64.5326   89.6498   14.0238 C.ar    1  UNL1        0.0728
     39 C          65.1138   90.3769   15.2000 C.ar    1  UNL1        0.1033
     40 N          65.6668   91.7606   15.0279 N.ar    1  UNL1       -0.2437
     41 C          65.6385   92.4172   13.6795 C.ar    1  UNL1        0.0813
     42 C          66.1914   93.8008   13.5074 C.ar    1  UNL1        0.0191
     43 C          66.1632   94.4574   12.1590 C.ar    1  UNL1        0.0015
     44 C          65.5820   93.7303   10.9828 C.ar    1  UNL1        0.0001
     45 C          65.0291   92.3466   11.1549 C.ar    1  UNL1        0.0015
     46 C          65.0573   91.6900   12.5033 C.ar    1  UNL1        0.0178
     47 C          64.5044   90.3063   12.6754 C.ar    1  UNL1        0.0076
     48 O          61.7106   81.7955   13.7136 O.3     1  UNL1       -0.4684
     49 C          62.3853   80.6305   13.0520 C.3     1  UNL1        0.2526
     50 O          63.5214   82.9580   15.8039 O.3     1  UNL1       -0.4683
     51 C          64.5756   81.8942   15.7216 C.3     1  UNL1        0.2526
@<TRIPOS>BOND
     1    24    25    1
     2    25    18    1
     3    18    19   ar
     4    19    20   ar
     5    20    21   ar
     6    21    17    1
     7    17    11    1
     8    11    12    1
     9    12    13    1
    10    13    14    1
    11    14     5    1
    12     5     6   ar
    13     6     7   ar
    14     7     8   ar
    15     8     1    1
    16     1     2   am
    17     2     3    2
    18     2    28    1
    19    28    29   ar
    20    29    30   ar
    21    30    48    1
    22    48    49    1
    23    30    31   ar
    24    31    50    1
    25    50    51    1
    26    31    32   ar
    27    32    33   ar
    28    33    34    1
    29    34    35   am
    30    35    36    2
    31    35    38    1
    32    38    39   ar
    33    39    40   ar
    34    40    41   ar
    35    41    42   ar
    36    42    43   ar
    37    43    44   ar
    38    44    45   ar
    39    45    46   ar
    40    46    47   ar
    41     8     9   ar
    42     9    10   ar
    43    14    15    1
    44    15    16    1
    45    21    22   ar
    46    22    23   ar
    47    23    26    1
    48    26    27    1
    49    23    18   ar
    50    16    11    1
    51    10     5   ar
    52    33    28   ar
    53    47    38   ar
    54    46    41   ar
    55     1     4    1
    56    34    37    1
@<TRIPOS>MOLECULE
*****
 51 56 0 0 0
SMALL
GASTEIGER

@<TRIPOS>ATOM
      1 N          61.0242   85.4135   10.3944 N.am    1  UNL1       -0.2803
      2 C          62.3772   84.7680   10.4444 C.2     1  UNL1        0.2508
      3 O          63.4596   85.2214    9.5100 O.2     1  UNL1       -0.2698
      4 H          60.3138   85.1160   11.0076 H       1  UNL1        0.1552
      5 C          60.2120   88.7103    7.4410 C.ar    1  UNL1        0.0480
      6 C          60.9606   89.0050    8.7071 C.ar    1  UNL1        0.0158
      7 C          61.2313   87.9062    9.6915 C.ar    1  UNL1        0.0159
      8 C          60.7534   86.5124    9.4099 C.ar    1  UNL1        0.0506
      9 C          60.0049   86.2176    8.1439 C.ar    1  UNL1        0.0159
     10 C          59.7342   87.3166    7.1594 C.ar    1  UNL1        0.0158
     11 N          59.3998   92.0070    4.4877 N.3     1  UNL1       -0.2660
     12 C          60.8079   91.5545    4.7382 C.3     1  UNL1        0.0941
     13 C          61.0786   90.4556    5.7226 C.3     1  UNL1        0.1081
     14 N          59.9413   89.8092    6.4566 N.pl3   1  UNL1       -0.3046
     15 C          58.5333   90.2616    6.2061 C.3     1  UNL1        0.1081
     16 C          58.2625   91.3606    5.2217 C.3     1  UNL1        0.0941
     17 C          59.1291   93.1059    3.5033 C.3     1  UNL1        0.0993
     18 C          61.3006   93.1819   -0.4373 C.ar    1  UNL1        0.1724
     19 C          62.0606   93.3735    0.8416 C.ar    1  UNL1        0.0398
     20 C          61.3368   93.3481    2.1551 C.ar    1  UNL1        0.0004
     21 C          59.8529   93.1312    2.1897 C.ar    1  UNL1       -0.0029
     22 C          59.0929   92.9397    0.9108 C.ar    1  UNL1        0.0371
     23 C          59.8168   92.9650   -0.4027 C.ar    1  UNL1        0.1721
     24 C          62.7116   94.4611   -2.2045 C.3     1  UNL1        0.2526
     25 O          62.0244   93.2073   -1.7509 O.3     1  UNL1       -0.4684
     26 O          59.0568   92.7735   -1.6817 O.3     1  UNL1       -0.4684
     27 C          58.7152   93.9584   -2.5358 C.3     1  UNL1        0.2526
     28 C          62.6480   83.6691   11.4289 C.ar    1  UNL1        0.0703
     29 C          62.5905   82.2365   10.9882 C.ar    1  UNL1        0.0458
     30 C          62.8613   81.1375   11.9726 C.ar    1  UNL1        0.1726
     31 C          63.1896   81.4713   13.3977 C.ar    1  UNL1        0.1736
     32 C          63.2471   82.9040   13.8383 C.ar    1  UNL1        0.0549
     33 C          62.9763   84.0029   12.8539 C.ar    1  UNL1        0.0582
     34 N          63.0339   85.4355   13.2946 N.am    1  UNL1       -0.2801
     35 C          63.7838   85.8079   14.5391 C.2     1  UNL1        0.2510
     36 O          64.4762   84.7476   15.3431 O.2     1  UNL1       -0.2698
     37 H          62.5795   86.1314   12.7669 H       1  UNL1        0.1552
     38 C          63.8414   87.2406   14.9798 C.ar    1  UNL1        0.0728
     39 C          63.1471   87.6663   16.2395 C.ar    1  UNL1        0.1033
     40 N          63.2046   89.0989   16.6801 N.ar    1  UNL1       -0.2437
     41 C          63.9564   90.1059   15.8611 C.ar    1  UNL1        0.0813
     42 C          64.0139   91.5386   16.3017 C.ar    1  UNL1        0.0191
     43 C          64.7656   92.5455   15.4827 C.ar    1  UNL1        0.0015
     44 C          65.4599   92.1198   14.2230 C.ar    1  UNL1        0.0001
     45 C          65.4024   90.6872   13.7823 C.ar    1  UNL1        0.0015
     46 C          64.6506   89.6803   14.6014 C.ar    1  UNL1        0.0178
     47 C          64.5931   88.2475   14.1607 C.ar    1  UNL1        0.0076
     48 O          62.8037   79.7049   11.5320 O.3     1  UNL1       -0.4684
     49 C          62.9064   79.3637   10.0749 C.3     1  UNL1        0.2526
     50 O          63.4603   80.3724   14.3821 O.3     1  UNL1       -0.4683
     51 C          62.5231   79.2054   14.4801 C.3     1  UNL1        0.2526
@<TRIPOS>BOND
     1    24    25    1
     2    25    18    1
     3    18    19   ar
     4    19    20   ar
     5    20    21   ar
     6    21    17    1
     7    17    11    1
     8    11    12    1
     9    12    13    1
    10    13    14    1
    11    14     5    1
    12     5     6   ar
    13     6     7   ar
    14     7     8   ar
    15     8     1    1
    16     1     2   am
    17     2     3    2
    18     2    28    1
    19    28    29   ar
    20    29    30   ar
    21    30    48    1
    22    48    49    1
    23    30    31   ar
    24    31    50    1
    25    50    51    1
    26    31    32   ar
    27    32    33   ar
    28    33    34    1
    29    34    35   am
    30    35    36    2
    31    35    38    1
    32    38    39   ar
    33    39    40   ar
    34    40    41   ar
    35    41    42   ar
    36    42    43   ar
    37    43    44   ar
    38    44    45   ar
    39    45    46   ar
    40    46    47   ar
    41     8     9   ar
    42     9    10   ar
    43    14    15    1
    44    15    16    1
    45    21    22   ar
    46    22    23   ar
    47    23    26    1
    48    26    27    1
    49    23    18   ar
    50    16    11    1
    51    10     5   ar
    52    33    28   ar
    53    47    38   ar
    54    46    41   ar
    55     1     4    1
    56    34    37    1
