@<TRIPOS>MOLECULE
*****
 18 20 0 0 0
SMALL
GASTEIGER

@<TRIPOS>ATOM
      1 C          61.0388   87.2996    9.2245 C.3     1  UNL1        0.0347
      2 C          62.1844   87.6216   10.1375 C.3     1  UNL1        0.0054
      3 C          62.3926   89.0293   10.6119 C.3     1  UNL1        0.0004
      4 C          61.4550   90.1150   10.1732 C.3     1  UNL1        0.0001
      5 C          60.3094   89.7929    9.2602 C.3     1  UNL1        0.0017
      6 C          60.1012   88.3852    8.7858 C.3     1  UNL1        0.0208
      7 C          59.0681   87.7709    7.8884 C.3     1  UNL1        0.0689
      8 N          59.3671   86.3056    7.7725 N.3     1  UNL1       -0.2972
      9 C          60.5851   86.0143    8.5982 C.3     1  UNL1        0.0726
     10 H          59.5443   86.0645    6.7973 H       1  UNL1        0.1233
     11 CL         64.4415   82.5633   10.6346 Cl      1  UNL1       -0.0814
     12 C          63.5908   83.7474   10.2820 C.ar    1  UNL1        0.0682
     13 C          63.6504   84.3290    8.9007 C.ar    1  UNL1        0.0119
     14 C          62.7997   85.5131    8.5482 C.ar    1  UNL1       -0.0033
     15 C          61.8895   86.1155    9.5770 C.ar    1  UNL1       -0.0206
     16 C          61.8299   85.5339   10.9584 C.ar    1  UNL1        0.0080
     17 C          62.6806   84.3498   11.3108 C.ar    1  UNL1        0.0679
     18 CL         62.6211   83.7682   12.6922 Cl      1  UNL1       -0.0814
@<TRIPOS>BOND
     1    11    12    1
     2    12    13   ar
     3    13    14   ar
     4    14    15   ar
     5     1    15    1
     6     1     2    1
     7     2     3    1
     8     3     4    1
     9     4     5    1
    10     6     5    1
    11     6     7    1
    12     7     8    1
    13     8     9    1
    14    15    16   ar
    15    16    17   ar
    16    17    18    1
    17    17    12   ar
    18     6     1    1
    19     9     1    1
    20     8    10    1
@<TRIPOS>MOLECULE
*****
 18 20 0 0 0
SMALL
GASTEIGER

@<TRIPOS>ATOM
      1 C          61.3570   87.4275    9.4366 C.3     1  UNL1        0.0347
      2 C          60.8495   86.1929    8.7524 C.3     1  UNL1        0.0054
      3 C          59.7144   86.2892    7.7767 C.3     1  UNL1        0.0004
      4 C          59.0868   87.6200    7.4851 C.3     1  UNL1        0.0001
      5 C          59.5943   88.8546    8.1692 C.3     1  UNL1        0.0017
      6 C          60.7294   88.7583    9.1450 C.3     1  UNL1        0.0208
      7 C          61.4375   89.7947    9.9664 C.3     1  UNL1        0.0689
      8 N          62.5027   89.1044   10.7656 N.3     1  UNL1       -0.2972
      9 C          62.4530   87.6414   10.4382 C.3     1  UNL1        0.0726
     10 H          62.3320   89.2421   11.7618 H       1  UNL1        0.1233
     11 CL         64.2502   82.4082   10.9973 Cl      1  UNL1       -0.0814
     12 C          63.5269   83.6631   10.6071 C.ar    1  UNL1        0.0682
     13 C          63.6439   84.1920    9.2084 C.ar    1  UNL1        0.0119
     14 C          62.9206   85.4469    8.8182 C.ar    1  UNL1       -0.0033
     15 C          62.0803   86.1727    9.8268 C.ar    1  UNL1       -0.0206
     16 C          61.9634   85.6436   11.2255 C.ar    1  UNL1        0.0080
     17 C          62.6867   84.3889   11.6156 C.ar    1  UNL1        0.0679
     18 CL         62.5697   83.8598   13.0144 Cl      1  UNL1       -0.0814
@<TRIPOS>BOND
     1    11    12    1
     2    12    13   ar
     3    13    14   ar
     4    14    15   ar
     5     1    15    1
     6     1     2    1
     7     2     3    1
     8     3     4    1
     9     4     5    1
    10     6     5    1
    11     6     7    1
    12     7     8    1
    13     8     9    1
    14    15    16   ar
    15    16    17   ar
    16    17    18    1
    17    17    12   ar
    18     6     1    1
    19     9     1    1
    20     8    10    1
@<TRIPOS>MOLECULE
*****
 18 20 0 0 0
SMALL
GASTEIGER

@<TRIPOS>ATOM
      1 C          63.1558   83.1555   13.0026 C.3     1  UNL1        0.0347
      2 C          63.8674   83.9104   11.9192 C.3     1  UNL1        0.0054
      3 C          64.1728   83.2385   10.6134 C.3     1  UNL1        0.0004
      4 C          63.7666   81.8118   10.3909 C.3     1  UNL1        0.0001
      5 C          63.0550   81.0570   11.4743 C.3     1  UNL1        0.0017
      6 C          62.7496   81.7288   12.7801 C.3     1  UNL1        0.0208
      7 C          62.0656   81.2424   14.0233 C.3     1  UNL1        0.0689
      8 N          62.0491   82.3684   15.0141 N.3     1  UNL1       -0.2972
      9 C          62.7229   83.5508   14.3833 C.3     1  UNL1        0.0726
     10 H          62.5510   82.0938   15.8586 H       1  UNL1        0.1233
     11 CL         64.5261   88.8111   14.4644 Cl      1  UNL1       -0.0814
     12 C          64.1835   87.3971   14.0989 C.ar    1  UNL1        0.0682
     13 C          64.6644   86.2636   14.9555 C.ar    1  UNL1        0.0119
     14 C          64.3218   84.8497   14.5901 C.ar    1  UNL1       -0.0033
     15 C          63.4984   84.5694   13.3680 C.ar    1  UNL1       -0.0206
     16 C          63.0176   85.7030   12.5115 C.ar    1  UNL1        0.0080
     17 C          63.3601   87.1168   12.8769 C.ar    1  UNL1        0.0679
     18 CL         62.8793   88.2504   12.0203 Cl      1  UNL1       -0.0814
@<TRIPOS>BOND
     1    11    12    1
     2    12    13   ar
     3    13    14   ar
     4    14    15   ar
     5     1    15    1
     6     1     2    1
     7     2     3    1
     8     3     4    1
     9     4     5    1
    10     6     5    1
    11     6     7    1
    12     7     8    1
    13     8     9    1
    14    15    16   ar
    15    16    17   ar
    16    17    18    1
    17    17    12   ar
    18     6     1    1
    19     9     1    1
    20     8    10    1
@<TRIPOS>MOLECULE
*****
 18 20 0 0 0
SMALL
GASTEIGER

@<TRIPOS>ATOM
      1 C          63.5768   85.5115   13.2439 C.3     1  UNL1        0.0347
      2 C          62.7664   85.2595   12.0072 C.3     1  UNL1        0.0054
      3 C          62.2710   86.4136   11.1871 C.3     1  UNL1        0.0004
      4 C          62.5860   87.8197   11.6038 C.3     1  UNL1        0.0001
      5 C          63.3964   88.0717   12.8406 C.3     1  UNL1        0.0017
      6 C          63.8918   86.9176   13.6606 C.3     1  UNL1        0.0208
      7 C          64.7062   86.8568   14.9188 C.3     1  UNL1        0.0689
      8 N          64.8946   85.4131   15.2798 N.3     1  UNL1       -0.2972
      9 C          64.1966   84.5817   14.2446 C.3     1  UNL1        0.0726
     10 H          64.4922   85.2308   16.1991 H       1  UNL1        0.1233
     11 CL         62.6390   79.7002   12.0828 Cl      1  UNL1       -0.0814
     12 C          62.8735   81.1530   12.3731 C.ar    1  UNL1        0.0682
     13 C          63.8865   81.9226   11.5785 C.ar    1  UNL1        0.0119
     14 C          64.1210   83.3754   11.8688 C.ar    1  UNL1       -0.0033
     15 C          63.3424   84.0587   12.9537 C.ar    1  UNL1       -0.0206
     16 C          62.3294   83.2890   13.7483 C.ar    1  UNL1        0.0080
     17 C          62.0949   81.8362   13.4580 C.ar    1  UNL1        0.0679
     18 CL         61.0819   81.0666   14.2526 Cl      1  UNL1       -0.0814
@<TRIPOS>BOND
     1    11    12    1
     2    12    13   ar
     3    13    14   ar
     4    14    15   ar
     5     1    15    1
     6     1     2    1
     7     2     3    1
     8     3     4    1
     9     4     5    1
    10     6     5    1
    11     6     7    1
    12     7     8    1
    13     8     9    1
    14    15    16   ar
    15    16    17   ar
    16    17    18    1
    17    17    12   ar
    18     6     1    1
    19     9     1    1
    20     8    10    1
@<TRIPOS>MOLECULE
*****
 18 20 0 0 0
SMALL
GASTEIGER

@<TRIPOS>ATOM
      1 C          61.1859   86.5447    8.8175 C.3     1  UNL1        0.0347
      2 C          62.5988   86.0700    8.9857 C.3     1  UNL1        0.0054
      3 C          63.1937   85.1182    7.9907 C.3     1  UNL1        0.0004
      4 C          62.3756   84.6411    6.8274 C.3     1  UNL1        0.0001
      5 C          60.9627   85.1158    6.6592 C.3     1  UNL1        0.0017
      6 C          60.3679   86.0676    7.6542 C.3     1  UNL1        0.0208
      7 C          59.0126   86.7035    7.7488 C.3     1  UNL1        0.0689
      8 N          58.9930   87.5736    8.9705 N.3     1  UNL1       -0.2972
      9 C          60.3362   87.4755    9.6310 C.3     1  UNL1        0.0726
     10 H          58.2676   87.2533    9.6120 H       1  UNL1        0.1233
     11 CL         63.9554   88.7871   13.6446 Cl      1  UNL1       -0.0814
     12 C          63.2630   88.2265   12.4378 C.ar    1  UNL1        0.0682
     13 C          62.7978   89.1441   11.3464 C.ar    1  UNL1        0.0119
     14 C          62.1054   88.5835   10.1395 C.ar    1  UNL1       -0.0033
     15 C          61.8783   87.1053   10.0243 C.ar    1  UNL1       -0.0206
     16 C          62.3436   86.1877   11.1159 C.ar    1  UNL1        0.0080
     17 C          63.0359   86.7483   12.3226 C.ar    1  UNL1        0.0679
     18 CL         63.5012   85.8307   13.4142 Cl      1  UNL1       -0.0814
@<TRIPOS>BOND
     1    11    12    1
     2    12    13   ar
     3    13    14   ar
     4    14    15   ar
     5     1    15    1
     6     1     2    1
     7     2     3    1
     8     3     4    1
     9     4     5    1
    10     6     5    1
    11     6     7    1
    12     7     8    1
    13     8     9    1
    14    15    16   ar
    15    16    17   ar
    16    17    18    1
    17    17    12   ar
    18     6     1    1
    19     9     1    1
    20     8    10    1
@<TRIPOS>MOLECULE
*****
 18 20 0 0 0
SMALL
GASTEIGER

@<TRIPOS>ATOM
      1 C          63.4539   84.3444   11.6940 C.3     1  UNL1        0.0347
      2 C          62.5753   85.5392   11.9184 C.3     1  UNL1        0.0054
      3 C          61.9333   86.2279   10.7508 C.3     1  UNL1        0.0004
      4 C          62.1699   85.7218    9.3587 C.3     1  UNL1        0.0001
      5 C          63.0485   84.5270    9.1342 C.3     1  UNL1        0.0017
      6 C          63.6905   83.8383   10.3019 C.3     1  UNL1        0.0208
      7 C          64.5986   82.6477   10.3897 C.3     1  UNL1        0.0689
      8 N          64.9233   82.4178   11.8360 N.3     1  UNL1       -0.2972
      9 C          64.2158   83.4665   12.6421 C.3     1  UNL1        0.0726
     10 H          65.9303   82.4910   11.9806 H       1  UNL1        0.1233
     11 CL         62.8797   85.9029   17.4595 Cl      1  UNL1       -0.0814
     12 C          63.0232   85.5132   16.0181 C.ar    1  UNL1        0.0682
     13 C          62.4585   84.2109   15.5335 C.ar    1  UNL1        0.0119
     14 C          62.6021   83.8213   14.0921 C.ar    1  UNL1       -0.0033
     15 C          63.3103   84.7340   13.1354 C.ar    1  UNL1       -0.0206
     16 C          63.8750   86.0364   13.6201 C.ar    1  UNL1        0.0080
     17 C          63.7315   86.4260   15.0614 C.ar    1  UNL1        0.0679
     18 CL         64.2962   87.7283   15.5461 Cl      1  UNL1       -0.0814
@<TRIPOS>BOND
     1    11    12    1
     2    12    13   ar
     3    13    14   ar
     4    14    15   ar
     5     1    15    1
     6     1     2    1
     7     2     3    1
     8     3     4    1
     9     4     5    1
    10     6     5    1
    11     6     7    1
    12     7     8    1
    13     8     9    1
    14    15    16   ar
    15    16    17   ar
    16    17    18    1
    17    17    12   ar
    18     6     1    1
    19     9     1    1
    20     8    10    1
@<TRIPOS>MOLECULE
*****
 18 20 0 0 0
SMALL
GASTEIGER

@<TRIPOS>ATOM
      1 C          63.1158   85.9451   12.4815 C.3     1  UNL1        0.0347
      2 C          63.8044   85.2185   13.5985 C.3     1  UNL1        0.0054
      3 C          64.4921   85.9916   14.6845 C.3     1  UNL1        0.0004
      4 C          64.4910   87.4913   14.6535 C.3     1  UNL1        0.0001
      5 C          63.8024   88.2179   13.5365 C.3     1  UNL1        0.0017
      6 C          63.1148   87.4448   12.4505 C.3     1  UNL1        0.0208
      7 C          62.3588   87.8826   11.2312 C.3     1  UNL1        0.0689
      8 N          61.8925   86.6536   10.5086 N.3     1  UNL1       -0.2972
      9 C          62.3604   85.4561   11.2814 C.3     1  UNL1        0.0726
     10 H          62.2869   86.6344    9.5681 H       1  UNL1        0.1233
     11 CL         62.7876   79.9680   12.0731 Cl      1  UNL1       -0.0814
     12 C          62.8697   81.4623   12.1752 C.ar    1  UNL1        0.0682
     13 C          63.5997   82.2467   11.1257 C.ar    1  UNL1        0.0119
     14 C          63.6817   83.7410   11.2278 C.ar    1  UNL1       -0.0033
     15 C          63.0338   84.4508   12.3794 C.ar    1  UNL1       -0.0206
     16 C          62.3038   83.6663   13.4290 C.ar    1  UNL1        0.0080
     17 C          62.2217   82.1721   13.3269 C.ar    1  UNL1        0.0679
     18 CL         61.4917   81.3876   14.3765 Cl      1  UNL1       -0.0814
@<TRIPOS>BOND
     1    11    12    1
     2    12    13   ar
     3    13    14   ar
     4    14    15   ar
     5     1    15    1
     6     1     2    1
     7     2     3    1
     8     3     4    1
     9     4     5    1
    10     6     5    1
    11     6     7    1
    12     7     8    1
    13     8     9    1
    14    15    16   ar
    15    16    17   ar
    16    17    18    1
    17    17    12   ar
    18     6     1    1
    19     9     1    1
    20     8    10    1
@<TRIPOS>MOLECULE
*****
 18 20 0 0 0
SMALL
GASTEIGER

@<TRIPOS>ATOM
      1 C          62.9264   84.0493   13.0761 C.3     1  UNL1        0.0347
      2 C          62.4508   82.9039   12.2324 C.3     1  UNL1        0.0054
      3 C          62.0447   81.6133   12.8800 C.3     1  UNL1        0.0004
      4 C          62.1141   81.4682   14.3714 C.3     1  UNL1        0.0001
      5 C          62.5896   82.6135   15.2151 C.3     1  UNL1        0.0017
      6 C          62.9958   83.9041   14.5674 C.3     1  UNL1        0.0208
      7 C          63.5014   85.1968   15.1359 C.3     1  UNL1        0.0689
      8 N          63.7445   86.1410   13.9960 N.3     1  UNL1       -0.2972
      9 C          63.3891   85.4317   12.7229 C.3     1  UNL1        0.0726
     10 H          64.7268   86.4150   13.9769 H       1  UNL1        0.1233
     11 CL         62.8631   85.2148    7.1908 Cl      1  UNL1       -0.0814
     12 C          62.8790   84.9234    8.6621 C.ar    1  UNL1        0.0682
     13 C          63.8337   83.9073    9.2152 C.ar    1  UNL1        0.0119
     14 C          63.8495   83.6160   10.6865 C.ar    1  UNL1       -0.0033
     15 C          62.9106   84.3407   11.6047 C.ar    1  UNL1       -0.0206
     16 C          61.9558   85.3568   11.0516 C.ar    1  UNL1        0.0080
     17 C          61.9400   85.6481    9.5803 C.ar    1  UNL1        0.0679
     18 CL         60.9853   86.6642    9.0272 Cl      1  UNL1       -0.0814
@<TRIPOS>BOND
     1    11    12    1
     2    12    13   ar
     3    13    14   ar
     4    14    15   ar
     5     1    15    1
     6     1     2    1
     7     2     3    1
     8     3     4    1
     9     4     5    1
    10     6     5    1
    11     6     7    1
    12     7     8    1
    13     8     9    1
    14    15    16   ar
    15    16    17   ar
    16    17    18    1
    17    17    12   ar
    18     6     1    1
    19     9     1    1
    20     8    10    1
@<TRIPOS>MOLECULE
*****
 18 20 0 0 0
SMALL
GASTEIGER

@<TRIPOS>ATOM
      1 C          62.8689   84.6685   11.7221 C.3     1  UNL1        0.0347
      2 C          63.0559   84.8163   10.2412 C.3     1  UNL1        0.0054
      3 C          63.7959   83.7639    9.4700 C.3     1  UNL1        0.0004
      4 C          64.3489   82.5637   10.1797 C.3     1  UNL1        0.0001
      5 C          64.1619   82.4159   11.6606 C.3     1  UNL1        0.0017
      6 C          63.4219   83.4683   12.4318 C.3     1  UNL1        0.0208
      7 C          63.0837   83.5941   13.8878 C.3     1  UNL1        0.0689
      8 N          62.3217   84.8721   14.0779 N.3     1  UNL1       -0.2972
      9 C          62.1889   85.5361   12.7395 C.3     1  UNL1        0.0726
     10 H          62.8264   85.4839   14.7193 H       1  UNL1        0.1233
     11 CL         60.4452   89.6614    9.4426 Cl      1  UNL1       -0.0814
     12 C          61.0511   88.4132   10.0125 C.ar    1  UNL1        0.0682
     13 C          62.1622   88.5093   11.0155 C.ar    1  UNL1        0.0119
     14 C          62.7681   87.2610   11.5854 C.ar    1  UNL1       -0.0033
     15 C          62.2629   85.9168   11.1522 C.ar    1  UNL1       -0.0206
     16 C          61.1518   85.8207   10.1491 C.ar    1  UNL1        0.0080
     17 C          60.5460   87.0689    9.5793 C.ar    1  UNL1        0.0679
     18 CL         59.4349   86.9729    8.5762 Cl      1  UNL1       -0.0814
@<TRIPOS>BOND
     1    11    12    1
     2    12    13   ar
     3    13    14   ar
     4    14    15   ar
     5     1    15    1
     6     1     2    1
     7     2     3    1
     8     3     4    1
     9     4     5    1
    10     6     5    1
    11     6     7    1
    12     7     8    1
    13     8     9    1
    14    15    16   ar
    15    16    17   ar
    16    17    18    1
    17    17    12   ar
    18     6     1    1
    19     9     1    1
    20     8    10    1
