@<TRIPOS>MOLECULE
*****
 30 34 0 0 0
SMALL
GASTEIGER

@<TRIPOS>ATOM
      1 O          58.5901   92.3657    4.1812 O.2     1  UNL1       -0.2526
      2 C          60.0231   91.9391    4.0592 C.2     1  UNL1        0.3039
      3 N          60.5536   90.8361    4.9263 N.am    1  UNL1       -0.2901
      4 N          60.9254   92.6156    3.0701 N.am    1  UNL1       -0.2642
      5 C          60.3947   93.7186    2.2030 C.3     1  UNL1        0.0954
      6 C          61.2970   94.3951    1.2140 C.3     1  UNL1        0.0309
      7 C          62.7300   93.9685    1.0920 C.3     1  UNL1        0.0827
      8 C          63.2605   92.8655    1.9591 C.3     1  UNL1        0.0309
      9 C          62.3582   92.1891    2.9481 C.3     1  UNL1        0.0954
     10 H          61.4941   90.5562    4.8462 H       1  UNL1        0.1509
     11 C          63.6323   94.6450    0.1029 C.ar    1  UNL1        0.2362
     12 N          63.5937   94.4734   -1.3867 N.ar    1  UNL1       -0.1908
     13 C          64.6692   95.3341   -1.9805 C.ar    1  UNL1        0.2034
     14 N          65.3724   96.0377   -0.8578 N.ar    1  UNL1       -0.0560
     15 O          64.7315   95.6118    0.4298 O.2     1  UNL1       -0.3370
     16 C          64.9858   95.4678   -3.4406 C.ar    1  UNL1        0.0422
     17 C          65.6285   96.7209   -3.9569 C.ar    1  UNL1        0.0238
     18 C          65.9451   96.8548   -5.4170 C.ar    1  UNL1        0.0990
     19 N          65.6191   95.7353   -6.3608 N.ar    1  UNL1       -0.2423
     20 C          64.9764   94.4822   -5.8444 C.ar    1  UNL1        0.0990
     21 C          64.6598   94.3485   -4.3842 C.ar    1  UNL1        0.0238
     22 C          59.6513   90.1597    5.9154 C.3     1  UNL1        0.0774
     23 C          58.2708   89.8220    6.3950 C.3     1  UNL1        0.0259
     24 C          59.4690   89.3258    7.1488 C.3     1  UNL1        0.0420
     25 C          60.0556   88.5579    8.2961 C.ar    1  UNL1       -0.0208
     26 C          60.4714   89.2767    9.5452 C.ar    1  UNL1       -0.0042
     27 C          61.0580   88.5088   10.6924 C.ar    1  UNL1       -0.0003
     28 C          61.2287   87.0220   10.5906 C.ar    1  UNL1       -0.0000
     29 C          60.8129   86.3032    9.3415 C.ar    1  UNL1       -0.0003
     30 C          60.2263   87.0711    8.1942 C.ar    1  UNL1       -0.0042
@<TRIPOS>BOND
     1     1     2    2
     2     2     3   am
     3     3    22    1
     4    22    23    1
     5    23    24    1
     6    24    25    1
     7    25    26   ar
     8    26    27   ar
     9    27    28   ar
    10    28    29   ar
    11    29    30   ar
    12     2     4   am
    13     4     5    1
    14     5     6    1
    15     6     7    1
    16     7    11    1
    17    11    12   ar
    18    12    13   ar
    19    13    16    1
    20    16    17   ar
    21    17    18   ar
    22    18    19   ar
    23    19    20   ar
    24    20    21   ar
    25    13    14   ar
    26    14    15   ar
    27     7     8    1
    28     8     9    1
    29    24    22    1
    30    30    25   ar
    31     9     4    1
    32    15    11   ar
    33    21    16   ar
    34     3    10    1
@<TRIPOS>MOLECULE
*****
 30 34 0 0 0
SMALL
GASTEIGER

@<TRIPOS>ATOM
      1 O          64.2399   86.1192   16.0900 O.2     1  UNL1       -0.2526
      2 C          63.8186   86.6324   14.7449 C.2     1  UNL1        0.3039
      3 N          63.0118   85.7609   13.8287 N.am    1  UNL1       -0.2901
      4 N          64.2041   88.0171   14.3162 N.am    1  UNL1       -0.2642
      5 C          65.0109   88.8887   15.2325 C.3     1  UNL1        0.0954
      6 C          65.3965   90.2734   14.8037 C.3     1  UNL1        0.0309
      7 C          64.9752   90.7866   13.4587 C.3     1  UNL1        0.0827
      8 C          64.1684   89.9151   12.5424 C.3     1  UNL1        0.0309
      9 C          63.7829   88.5304   12.9712 C.3     1  UNL1        0.0954
     10 H          62.7353   86.0977   12.9459 H       1  UNL1        0.1509
     11 C          65.3607   92.1714   13.0299 C.ar    1  UNL1        0.2362
     12 N          65.4538   92.6627   11.6157 N.ar    1  UNL1       -0.1908
     13 C          65.8715   94.1029   11.6518 C.ar    1  UNL1        0.2034
     14 N          66.0365   94.5018   13.0884 N.ar    1  UNL1       -0.0560
     15 O          65.7208   93.3080   13.9400 O.2     1  UNL1       -0.3370
     16 C          66.0864   94.9887   10.4605 C.ar    1  UNL1        0.0422
     17 C          67.3606   94.8931    9.6750 C.ar    1  UNL1        0.0238
     18 C          67.5757   95.7789    8.4837 C.ar    1  UNL1        0.0990
     19 N          66.5163   96.7603    8.0780 N.ar    1  UNL1       -0.2423
     20 C          65.2420   96.8559    8.8635 C.ar    1  UNL1        0.0990
     21 C          65.0271   95.9700   10.0548 C.ar    1  UNL1        0.0238
     22 C          62.6263   84.3761   14.2575 C.3     1  UNL1        0.0774
     23 C          62.1114   83.4377   15.3083 C.3     1  UNL1        0.0259
     24 C          62.4734   82.9162   13.9493 C.3     1  UNL1        0.0420
     25 C          62.5942   81.7721   12.9866 C.ar    1  UNL1       -0.0208
     26 C          63.0161   82.0254   11.5697 C.ar    1  UNL1       -0.0042
     27 C          63.1368   80.8814   10.6072 C.ar    1  UNL1       -0.0003
     28 C          62.8356   79.4839   11.0616 C.ar    1  UNL1       -0.0000
     29 C          62.4137   79.2306   12.4785 C.ar    1  UNL1       -0.0003
     30 C          62.2930   80.3746   13.4410 C.ar    1  UNL1       -0.0042
@<TRIPOS>BOND
     1     1     2    2
     2     2     3   am
     3     3    22    1
     4    22    23    1
     5    23    24    1
     6    24    25    1
     7    25    26   ar
     8    26    27   ar
     9    27    28   ar
    10    28    29   ar
    11    29    30   ar
    12     2     4   am
    13     4     5    1
    14     5     6    1
    15     6     7    1
    16     7    11    1
    17    11    12   ar
    18    12    13   ar
    19    13    16    1
    20    16    17   ar
    21    17    18   ar
    22    18    19   ar
    23    19    20   ar
    24    20    21   ar
    25    13    14   ar
    26    14    15   ar
    27     7     8    1
    28     8     9    1
    29    24    22    1
    30    30    25   ar
    31     9     4    1
    32    15    11   ar
    33    21    16   ar
    34     3    10    1
@<TRIPOS>MOLECULE
*****
 30 34 0 0 0
SMALL
GASTEIGER

@<TRIPOS>ATOM
      1 O          58.3199   91.7040    4.8890 O.2     1  UNL1       -0.2526
      2 C          59.7710   91.4921    4.5738 C.2     1  UNL1        0.3039
      3 N          60.5786   90.5171    5.3783 N.am    1  UNL1       -0.2901
      4 N          60.4146   92.2551    3.4542 N.am    1  UNL1       -0.2642
      5 C          59.6070   93.2301    2.6497 C.3     1  UNL1        0.0954
      6 C          60.2505   93.9932    1.5300 C.3     1  UNL1        0.0309
      7 C          61.7017   93.7812    1.2149 C.3     1  UNL1        0.0827
      8 C          62.5092   92.8062    2.0194 C.3     1  UNL1        0.0309
      9 C          61.8657   92.0432    3.1391 C.3     1  UNL1        0.0954
     10 H          61.5310   90.3780    5.1715 H       1  UNL1        0.1509
     11 C          62.3453   94.5442    0.0953 C.ar    1  UNL1        0.2362
     12 N          62.9754   93.9494   -1.1291 N.ar    1  UNL1       -0.1908
     13 C          63.4913   95.0736   -1.9777 C.ar    1  UNL1        0.2034
     14 N          63.1800   96.3633   -1.2777 N.ar    1  UNL1       -0.0560
     15 O          62.4717   96.0361    0.0034 O.2     1  UNL1       -0.3370
     16 C          64.1949   94.9329   -3.2949 C.ar    1  UNL1        0.0422
     17 C          64.9318   96.1010   -3.8801 C.ar    1  UNL1        0.0238
     18 C          65.6355   95.9604   -5.1973 C.ar    1  UNL1        0.0990
     19 N          65.6022   94.6515   -5.9294 N.ar    1  UNL1       -0.2423
     20 C          64.8652   93.4835   -5.3442 C.ar    1  UNL1        0.0990
     21 C          64.1615   93.6241   -4.0269 C.ar    1  UNL1        0.0238
     22 C          59.9350   89.7540    6.4980 C.3     1  UNL1        0.0774
     23 C          58.8357   88.8664    7.0015 C.3     1  UNL1        0.0259
     24 C          59.9197   89.3201    7.9337 C.3     1  UNL1        0.0420
     25 C          60.5367   89.3315    9.3009 C.ar    1  UNL1       -0.0208
     26 C          59.9482   90.1884   10.3823 C.ar    1  UNL1       -0.0042
     27 C          60.5652   90.1998   11.7494 C.ar    1  UNL1       -0.0003
     28 C          61.7708   89.3542   12.0352 C.ar    1  UNL1       -0.0000
     29 C          62.3593   88.4973   10.9539 C.ar    1  UNL1       -0.0003
     30 C          61.7423   88.4860    9.5868 C.ar    1  UNL1       -0.0042
@<TRIPOS>BOND
     1     1     2    2
     2     2     3   am
     3     3    22    1
     4    22    23    1
     5    23    24    1
     6    24    25    1
     7    25    26   ar
     8    26    27   ar
     9    27    28   ar
    10    28    29   ar
    11    29    30   ar
    12     2     4   am
    13     4     5    1
    14     5     6    1
    15     6     7    1
    16     7    11    1
    17    11    12   ar
    18    12    13   ar
    19    13    16    1
    20    16    17   ar
    21    17    18   ar
    22    18    19   ar
    23    19    20   ar
    24    20    21   ar
    25    13    14   ar
    26    14    15   ar
    27     7     8    1
    28     8     9    1
    29    24    22    1
    30    30    25   ar
    31     9     4    1
    32    15    11   ar
    33    21    16   ar
    34     3    10    1
@<TRIPOS>MOLECULE
*****
 30 34 0 0 0
SMALL
GASTEIGER

@<TRIPOS>ATOM
      1 O          58.1998   88.8401    5.9392 O.2     1  UNL1       -0.2526
      2 C          59.3494   89.4520    6.6837 C.2     1  UNL1        0.3039
      3 N          59.8444   90.8173    6.3085 N.am    1  UNL1       -0.2901
      4 N          60.0039   88.6984    7.8035 N.am    1  UNL1       -0.2642
      5 C          59.5088   87.3330    8.1787 C.3     1  UNL1        0.0954
      6 C          60.1633   86.5795    9.2984 C.3     1  UNL1        0.0309
      7 C          61.3129   87.1913   10.0429 C.3     1  UNL1        0.0827
      8 C          61.8079   88.5566    9.6677 C.3     1  UNL1        0.0309
      9 C          61.1534   89.3102    8.5480 C.3     1  UNL1        0.0954
     10 H          60.5989   91.2188    6.7972 H       1  UNL1        0.1509
     11 C          61.9674   86.4378   11.1627 C.ar    1  UNL1        0.2362
     12 N          61.9538   84.9496   11.3502 N.ar    1  UNL1       -0.1908
     13 C          62.7284   84.6322   12.5949 C.ar    1  UNL1        0.2034
     14 N          63.2207   85.9242   13.1767 N.ar    1  UNL1       -0.0560
     15 O          62.7503   87.0401   12.2915 O.2     1  UNL1       -0.3370
     16 C          62.9685   83.2631   13.1588 C.ar    1  UNL1        0.0422
     17 C          62.4534   82.0536   12.4366 C.ar    1  UNL1        0.0238
     18 C          62.6934   80.6844   13.0004 C.ar    1  UNL1        0.0990
     19 N          63.4487   80.5249   14.2866 N.ar    1  UNL1       -0.2423
     20 C          63.9639   81.7344   15.0088 C.ar    1  UNL1        0.0990
     21 C          63.7238   83.1036   14.4449 C.ar    1  UNL1        0.0238
     22 C          59.1899   91.5708    5.1888 C.3     1  UNL1        0.0774
     23 C          57.9659   92.1867    4.5785 C.3     1  UNL1        0.0259
     24 C          59.2803   92.2602    3.8597 C.3     1  UNL1        0.0420
     25 C          60.0915   92.7006    2.6772 C.ar    1  UNL1       -0.0208
     26 C          61.5881   92.6079    2.7179 C.ar    1  UNL1       -0.0042
     27 C          62.3992   93.0484    1.5355 C.ar    1  UNL1       -0.0003
     28 C          61.7137   93.5814    0.3124 C.ar    1  UNL1       -0.0000
     29 C          60.2171   93.6741    0.2717 C.ar    1  UNL1       -0.0003
     30 C          59.4061   93.2337    1.4541 C.ar    1  UNL1       -0.0042
@<TRIPOS>BOND
     1     1     2    2
     2     2     3   am
     3     3    22    1
     4    22    23    1
     5    23    24    1
     6    24    25    1
     7    25    26   ar
     8    26    27   ar
     9    27    28   ar
    10    28    29   ar
    11    29    30   ar
    12     2     4   am
    13     4     5    1
    14     5     6    1
    15     6     7    1
    16     7    11    1
    17    11    12   ar
    18    12    13   ar
    19    13    16    1
    20    16    17   ar
    21    17    18   ar
    22    18    19   ar
    23    19    20   ar
    24    20    21   ar
    25    13    14   ar
    26    14    15   ar
    27     7     8    1
    28     8     9    1
    29    24    22    1
    30    30    25   ar
    31     9     4    1
    32    15    11   ar
    33    21    16   ar
    34     3    10    1
@<TRIPOS>MOLECULE
*****
 30 34 0 0 0
SMALL
GASTEIGER

@<TRIPOS>ATOM
      1 O          71.1547   74.1463   15.3881 O.2     1  UNL1       -0.2526
      2 C          72.2534   75.1671   15.3569 C.2     1  UNL1        0.3039
      3 N          73.3633   75.1054   16.3640 N.am    1  UNL1       -0.2901
      4 N          72.2422   76.2496   14.3186 N.am    1  UNL1       -0.2642
      5 C          71.1323   76.3112   13.3114 C.3     1  UNL1        0.0954
      6 C          71.1210   77.3937   12.2731 C.3     1  UNL1        0.0309
      7 C          72.2197   78.4145   12.2419 C.3     1  UNL1        0.0827
      8 C          73.3296   78.3528   13.2490 C.3     1  UNL1        0.0309
      9 C          73.3408   77.2703   14.2873 C.3     1  UNL1        0.0954
     10 H          74.0844   75.7754   16.3436 H       1  UNL1        0.1509
     11 C          72.2085   79.4969   11.2035 C.ar    1  UNL1        0.2362
     12 N          72.3130   79.2972    9.7205 N.ar    1  UNL1       -0.1908
     13 C          72.2599   80.6460    9.0663 C.ar    1  UNL1        0.2034
     14 N          72.1225   81.6793   10.1449 N.ar    1  UNL1       -0.0560
     15 O          72.0907   80.9691   11.4658 O.2     1  UNL1       -0.3370
     16 C          72.3315   80.9144    7.5923 C.ar    1  UNL1        0.0422
     17 C          71.1735   80.5580    6.7079 C.ar    1  UNL1        0.0238
     18 C          71.2450   80.8263    5.2338 C.ar    1  UNL1        0.0990
     19 N          72.4747   81.4510    4.6441 N.ar    1  UNL1       -0.2423
     20 C          73.6327   81.8073    5.5284 C.ar    1  UNL1        0.0990
     21 C          73.5611   81.5390    7.0026 C.ar    1  UNL1        0.0238
     22 C          73.3746   74.0230   17.4024 C.3     1  UNL1        0.0774
     23 C          73.6329   73.5767   18.8110 C.3     1  UNL1        0.0259
     24 C          73.1357   72.5944   17.7923 C.3     1  UNL1        0.0420
     25 C          72.7106   71.2024   17.4292 C.ar    1  UNL1       -0.0208
     26 C          71.3724   70.6878   17.8701 C.ar    1  UNL1       -0.0042
     27 C          70.9474   69.2959   17.5070 C.ar    1  UNL1       -0.0003
     28 C          71.8606   68.4185   16.7031 C.ar    1  UNL1       -0.0000
     29 C          73.1988   68.9331   16.2622 C.ar    1  UNL1       -0.0003
     30 C          73.6238   70.3250   16.6253 C.ar    1  UNL1       -0.0042
@<TRIPOS>BOND
     1     1     2    2
     2     2     3   am
     3     3    22    1
     4    22    23    1
     5    23    24    1
     6    24    25    1
     7    25    26   ar
     8    26    27   ar
     9    27    28   ar
    10    28    29   ar
    11    29    30   ar
    12     2     4   am
    13     4     5    1
    14     5     6    1
    15     6     7    1
    16     7    11    1
    17    11    12   ar
    18    12    13   ar
    19    13    16    1
    20    16    17   ar
    21    17    18   ar
    22    18    19   ar
    23    19    20   ar
    24    20    21   ar
    25    13    14   ar
    26    14    15   ar
    27     7     8    1
    28     8     9    1
    29    24    22    1
    30    30    25   ar
    31     9     4    1
    32    15    11   ar
    33    21    16   ar
    34     3    10    1
@<TRIPOS>MOLECULE
*****
 30 34 0 0 0
SMALL
GASTEIGER

@<TRIPOS>ATOM
      1 O          65.3189   92.7113   15.2858 O.2     1  UNL1       -0.2526
      2 C          65.1414   91.8051   14.1037 C.2     1  UNL1        0.3039
      3 N          65.4498   92.3040   12.7232 N.am    1  UNL1       -0.2901
      4 N          64.6555   90.3999   14.3022 N.am    1  UNL1       -0.2642
      5 C          64.3471   89.9010   15.6828 C.3     1  UNL1        0.0954
      6 C          63.8611   88.4959   15.8813 C.3     1  UNL1        0.0309
      7 C          63.6837   87.5896   14.6992 C.3     1  UNL1        0.0827
      8 C          63.9921   88.0885   13.3187 C.3     1  UNL1        0.0309
      9 C          64.4780   89.4937   13.1202 C.3     1  UNL1        0.0954
     10 H          65.3333   91.7092   11.9474 H       1  UNL1        0.1509
     11 C          63.1977   86.1844   14.8977 C.ar    1  UNL1        0.2362
     12 N          63.2750   85.0744   13.8918 N.ar    1  UNL1       -0.1908
     13 C          62.6743   83.8465   14.5094 C.ar    1  UNL1        0.2034
     14 N          62.2257   84.1977   15.8970 N.ar    1  UNL1       -0.0560
     15 O          62.5492   85.6426   16.1370 O.2     1  UNL1       -0.3370
     16 C          62.5449   82.5033   13.8544 C.ar    1  UNL1        0.0422
     17 C          63.2703   82.2213   12.5721 C.ar    1  UNL1        0.0238
     18 C          63.1409   80.8781   11.9170 C.ar    1  UNL1        0.0990
     19 N          62.2861   79.8170   12.5442 N.ar    1  UNL1       -0.2423
     20 C          61.5607   80.0990   13.8264 C.ar    1  UNL1        0.0990
     21 C          61.6901   81.4423   14.4816 C.ar    1  UNL1        0.0238
     22 C          65.9357   93.7092   12.5247 C.3     1  UNL1        0.0774
     23 C          66.4970   94.9813   13.0874 C.3     1  UNL1        0.0259
     24 C          66.2160   94.8709   11.6181 C.3     1  UNL1        0.0420
     25 C          66.2156   95.4779   10.2463 C.ar    1  UNL1       -0.0208
     26 C          67.4096   95.3141    9.3534 C.ar    1  UNL1       -0.0042
     27 C          67.4092   95.9211    7.9817 C.ar    1  UNL1       -0.0003
     28 C          66.2147   96.6918    7.5030 C.ar    1  UNL1       -0.0000
     29 C          65.0206   96.8555    8.3959 C.ar    1  UNL1       -0.0003
     30 C          65.0211   96.2485    9.7676 C.ar    1  UNL1       -0.0042
@<TRIPOS>BOND
     1     1     2    2
     2     2     3   am
     3     3    22    1
     4    22    23    1
     5    23    24    1
     6    24    25    1
     7    25    26   ar
     8    26    27   ar
     9    27    28   ar
    10    28    29   ar
    11    29    30   ar
    12     2     4   am
    13     4     5    1
    14     5     6    1
    15     6     7    1
    16     7    11    1
    17    11    12   ar
    18    12    13   ar
    19    13    16    1
    20    16    17   ar
    21    17    18   ar
    22    18    19   ar
    23    19    20   ar
    24    20    21   ar
    25    13    14   ar
    26    14    15   ar
    27     7     8    1
    28     8     9    1
    29    24    22    1
    30    30    25   ar
    31     9     4    1
    32    15    11   ar
    33    21    16   ar
    34     3    10    1
@<TRIPOS>MOLECULE
*****
 30 34 0 0 0
SMALL
GASTEIGER

@<TRIPOS>ATOM
      1 O          58.0282   90.4449    6.0340 O.2     1  UNL1       -0.2526
      2 C          59.4854   90.4256    5.6786 C.2     1  UNL1        0.3039
      3 N          60.4241   89.5136    6.4115 N.am    1  UNL1       -0.2901
      4 N          60.0039   91.3183    4.5904 N.am    1  UNL1       -0.2642
      5 C          59.0651   92.2304    3.8576 C.3     1  UNL1        0.0954
      6 C          59.5836   93.1231    2.7694 C.3     1  UNL1        0.0309
      7 C          61.0408   93.1038    2.4140 C.3     1  UNL1        0.0827
      8 C          61.9795   92.1918    3.1468 C.3     1  UNL1        0.0309
      9 C          61.4610   91.2990    4.2350 C.3     1  UNL1        0.0954
     10 H          61.3805   89.5009    6.1782 H       1  UNL1        0.1509
     11 C          61.5593   93.9965    1.3258 C.ar    1  UNL1        0.2362
     12 N          62.3457   93.5586    0.1259 N.ar    1  UNL1       -0.1908
     13 C          62.6548   94.7753   -0.6951 C.ar    1  UNL1        0.2034
     14 N          62.0594   95.9653   -0.0026 N.ar    1  UNL1       -0.0560
     15 O          61.3824   95.4839    1.2463 O.2     1  UNL1       -0.3370
     16 C          63.4242   94.7981   -1.9826 C.ar    1  UNL1        0.0422
     17 C          63.2691   93.6787   -2.9689 C.ar    1  UNL1        0.0238
     18 C          64.0384   93.7013   -4.2563 C.ar    1  UNL1        0.0990
     19 N          64.9630   94.8436   -4.5575 N.ar    1  UNL1       -0.2423
     20 C          65.1181   95.9630   -3.5712 C.ar    1  UNL1        0.0990
     21 C          64.3487   95.9402   -2.2837 C.ar    1  UNL1        0.0238
     22 C          59.9056   88.6208    7.4997 C.3     1  UNL1        0.0774
     23 C          58.7677   88.1270    8.3429 C.3     1  UNL1        0.0259
     24 C          60.1456   87.5685    8.5413 C.3     1  UNL1        0.0420
     25 C          61.0798   86.6384    9.2571 C.ar    1  UNL1       -0.0208
     26 C          61.0046   86.5015   10.7489 C.ar    1  UNL1       -0.0042
     27 C          61.9387   85.5715   11.4647 C.ar    1  UNL1       -0.0003
     28 C          62.9481   84.7784   10.6887 C.ar    1  UNL1       -0.0000
     29 C          63.0233   84.9153    9.1969 C.ar    1  UNL1       -0.0003
     30 C          62.0891   85.8453    8.4811 C.ar    1  UNL1       -0.0042
@<TRIPOS>BOND
     1     1     2    2
     2     2     3   am
     3     3    22    1
     4    22    23    1
     5    23    24    1
     6    24    25    1
     7    25    26   ar
     8    26    27   ar
     9    27    28   ar
    10    28    29   ar
    11    29    30   ar
    12     2     4   am
    13     4     5    1
    14     5     6    1
    15     6     7    1
    16     7    11    1
    17    11    12   ar
    18    12    13   ar
    19    13    16    1
    20    16    17   ar
    21    17    18   ar
    22    18    19   ar
    23    19    20   ar
    24    20    21   ar
    25    13    14   ar
    26    14    15   ar
    27     7     8    1
    28     8     9    1
    29    24    22    1
    30    30    25   ar
    31     9     4    1
    32    15    11   ar
    33    21    16   ar
    34     3    10    1
@<TRIPOS>MOLECULE
*****
 30 34 0 0 0
SMALL
GASTEIGER

@<TRIPOS>ATOM
      1 O          61.8473   87.3377   11.6711 O.2     1  UNL1       -0.2526
      2 C          61.4639   86.7573   10.3421 C.2     1  UNL1        0.3039
      3 N          61.6449   85.2909   10.0837 N.am    1  UNL1       -0.2901
      4 N          60.8995   87.6435    9.2714 N.am    1  UNL1       -0.2642
      5 C          60.7185   89.1100    9.5298 C.3     1  UNL1        0.0954
      6 C          60.1542   89.9961    8.4592 C.3     1  UNL1        0.0309
      7 C          59.7708   89.4157    7.1302 C.3     1  UNL1        0.0827
      8 C          59.9518   87.9493    6.8718 C.3     1  UNL1        0.0309
      9 C          60.5161   87.0632    7.9425 C.3     1  UNL1        0.0954
     10 H          61.3933   84.9100    9.2115 H       1  UNL1        0.1509
     11 C          59.2064   90.3018    6.0595 C.ar    1  UNL1        0.2362
     12 N          59.9983   91.0815    5.0520 N.ar    1  UNL1       -0.1908
     13 C          59.0324   91.8254    4.1782 C.ar    1  UNL1        0.2034
     14 N          57.6434   91.5055    4.6457 N.ar    1  UNL1       -0.0560
     15 O          57.7510   90.5639    5.8083 O.2     1  UNL1       -0.3370
     16 C          59.3922   92.7303    3.0373 C.ar    1  UNL1        0.0422
     17 C          60.1572   93.9945    3.2953 C.ar    1  UNL1        0.0238
     18 C          60.5171   94.8995    2.1544 C.ar    1  UNL1        0.0990
     19 N          60.1120   94.5402    0.7556 N.ar    1  UNL1       -0.2423
     20 C          59.3470   93.2759    0.4976 C.ar    1  UNL1        0.0990
     21 C          58.9871   92.3710    1.6386 C.ar    1  UNL1        0.0238
     22 C          62.2093   84.4048   11.1544 C.3     1  UNL1        0.0774
     23 C          62.6876   83.0570   11.6067 C.3     1  UNL1        0.0259
     24 C          62.7084   84.2178   12.5565 C.3     1  UNL1        0.0420
     25 C          63.0086   84.7801   13.9144 C.ar    1  UNL1       -0.0208
     26 C          62.1995   84.3472   15.1009 C.ar    1  UNL1       -0.0042
     27 C          62.4997   84.9094   16.4588 C.ar    1  UNL1       -0.0003
     28 C          63.6089   85.9046   16.6300 C.ar    1  UNL1       -0.0000
     29 C          64.4179   86.3375   15.4434 C.ar    1  UNL1       -0.0003
     30 C          64.1178   85.7752   14.0856 C.ar    1  UNL1       -0.0042
@<TRIPOS>BOND
     1     1     2    2
     2     2     3   am
     3     3    22    1
     4    22    23    1
     5    23    24    1
     6    24    25    1
     7    25    26   ar
     8    26    27   ar
     9    27    28   ar
    10    28    29   ar
    11    29    30   ar
    12     2     4   am
    13     4     5    1
    14     5     6    1
    15     6     7    1
    16     7    11    1
    17    11    12   ar
    18    12    13   ar
    19    13    16    1
    20    16    17   ar
    21    17    18   ar
    22    18    19   ar
    23    19    20   ar
    24    20    21   ar
    25    13    14   ar
    26    14    15   ar
    27     7     8    1
    28     8     9    1
    29    24    22    1
    30    30    25   ar
    31     9     4    1
    32    15    11   ar
    33    21    16   ar
    34     3    10    1
@<TRIPOS>MOLECULE
*****
 30 34 0 0 0
SMALL
GASTEIGER

@<TRIPOS>ATOM
      1 O          58.0089   88.9668    7.4842 O.2     1  UNL1       -0.2526
      2 C          59.3539   89.4762    7.0581 C.2     1  UNL1        0.3039
      3 N          60.5868   89.0474    7.7970 N.am    1  UNL1       -0.2901
      4 N          59.4660   90.4142    5.8930 N.am    1  UNL1       -0.2642
      5 C          58.2330   90.8430    5.1540 C.3     1  UNL1        0.0954
      6 C          58.3450   91.7810    3.9889 C.3     1  UNL1        0.0309
      7 C          59.6900   92.2904    3.5628 C.3     1  UNL1        0.0827
      8 C          60.9229   91.8617    4.3017 C.3     1  UNL1        0.0309
      9 C          60.8109   90.9236    5.4668 C.3     1  UNL1        0.0954
     10 H          61.4696   89.3818    7.5173 H       1  UNL1        0.1509
     11 C          59.8021   93.2285    2.3977 C.ar    1  UNL1        0.2362
     12 N          59.7217   92.8485    0.9489 N.ar    1  UNL1       -0.1908
     13 C          59.8841   94.0964    0.1326 C.ar    1  UNL1        0.2034
     14 N          60.0648   95.2478    1.0770 N.ar    1  UNL1       -0.0560
     15 O          60.0141   94.7113    2.4769 O.2     1  UNL1       -0.3370
     16 C          59.8685   94.1786   -1.3651 C.ar    1  UNL1        0.0422
     17 C          58.6014   94.5370   -2.0833 C.ar    1  UNL1        0.0238
     18 C          58.5856   94.6192   -3.5810 C.ar    1  UNL1        0.0990
     19 N          59.8372   94.3430   -4.3604 N.ar    1  UNL1       -0.2423
     20 C          61.1043   93.9846   -3.6421 C.ar    1  UNL1        0.0990
     21 C          61.1199   93.9024   -2.1444 C.ar    1  UNL1        0.0238
     22 C          60.4748   88.1094    8.9621 C.3     1  UNL1        0.0774
     23 C          59.7800   87.6761   10.2189 C.3     1  UNL1        0.0259
     24 C          60.9756   86.9178    9.7233 C.3     1  UNL1        0.0420
     25 C          61.9550   85.7921    9.8767 C.ar    1  UNL1       -0.0208
     26 C          62.1097   85.1079   11.2025 C.ar    1  UNL1       -0.0042
     27 C          63.0891   83.9822   11.3558 C.ar    1  UNL1       -0.0003
     28 C          63.9138   83.5407   10.1832 C.ar    1  UNL1       -0.0000
     29 C          63.7592   84.2249    8.8574 C.ar    1  UNL1       -0.0003
     30 C          62.7798   85.3506    8.7041 C.ar    1  UNL1       -0.0042
@<TRIPOS>BOND
     1     1     2    2
     2     2     3   am
     3     3    22    1
     4    22    23    1
     5    23    24    1
     6    24    25    1
     7    25    26   ar
     8    26    27   ar
     9    27    28   ar
    10    28    29   ar
    11    29    30   ar
    12     2     4   am
    13     4     5    1
    14     5     6    1
    15     6     7    1
    16     7    11    1
    17    11    12   ar
    18    12    13   ar
    19    13    16    1
    20    16    17   ar
    21    17    18   ar
    22    18    19   ar
    23    19    20   ar
    24    20    21   ar
    25    13    14   ar
    26    14    15   ar
    27     7     8    1
    28     8     9    1
    29    24    22    1
    30    30    25   ar
    31     9     4    1
    32    15    11   ar
    33    21    16   ar
    34     3    10    1
