@<TRIPOS>MOLECULE
*****
 8 8 0 0 0
SMALL
GASTEIGER

@<TRIPOS>ATOM
      1 C          64.4516   90.4712   13.6602 C.3     1  UNL1        0.0983
      2 C          64.8218   91.2996   14.8546 C.2     1  UNL1        0.2430
      3 O          63.8359   91.4922   15.9685 O.2     1  UNL1       -0.2716
      4 N          66.1780   91.9355   14.9351 N.ar    1  UNL1       -0.2573
      5 C          66.6876   92.7862   16.0605 C.ar    1  UNL1        0.1048
      6 C          68.0872   93.2087   15.7253 C.ar    1  UNL1        0.1197
      7 N          68.4427   92.6192   14.3926 N.ar    1  UNL1       -0.2219
      8 C          67.2628   91.8323   13.9042 C.ar    1  UNL1        0.1850
@<TRIPOS>BOND
     1     1     2    1
     2     2     3    2
     3     2     4   am
     4     4     5   ar
     5     5     6   ar
     6     6     7   ar
     7     7     8   ar
     8     8     4   ar
@<TRIPOS>MOLECULE
*****
 8 8 0 0 0
SMALL
GASTEIGER

@<TRIPOS>ATOM
      1 C          61.2475   81.1036   14.1309 C.3     1  UNL1        0.0983
      2 C          62.4064   81.7677   13.4482 C.2     1  UNL1        0.2430
      3 O          63.0911   81.0868   12.3004 O.2     1  UNL1       -0.2716
      4 N          62.8806   83.1125   13.9135 N.ar    1  UNL1       -0.2573
      5 C          64.0204   83.8952   13.3319 C.ar    1  UNL1        0.1048
      6 C          64.1425   85.1773   14.1010 C.ar    1  UNL1        0.1197
      7 N          63.0781   85.1870   15.1578 N.ar    1  UNL1       -0.2219
      8 C          62.2982   83.9109   15.0419 C.ar    1  UNL1        0.1850
@<TRIPOS>BOND
     1     1     2    1
     2     2     3    2
     3     2     4   am
     4     4     5   ar
     5     5     6   ar
     6     6     7   ar
     7     7     8   ar
     8     8     4   ar
@<TRIPOS>MOLECULE
*****
 8 8 0 0 0
SMALL
GASTEIGER

@<TRIPOS>ATOM
      1 C          62.7761   81.8016   11.8884 C.3     1  UNL1        0.0983
      2 C          63.3317   82.0344   13.2621 C.2     1  UNL1        0.2430
      3 O          63.6683   80.8676   14.1426 O.2     1  UNL1       -0.2716
      4 N          63.5509   83.4339   13.7553 N.ar    1  UNL1       -0.2573
      5 C          64.0964   83.8203   15.0981 C.ar    1  UNL1        0.1048
      6 C          64.1457   85.3180   15.1650 C.ar    1  UNL1        0.1197
      7 N          63.6305   85.8573   13.8635 N.ar    1  UNL1       -0.2219
      8 C          63.2629   84.6929   12.9923 C.ar    1  UNL1        0.1850
@<TRIPOS>BOND
     1     1     2    1
     2     2     3    2
     3     2     4   am
     4     4     5   ar
     5     5     6   ar
     6     6     7   ar
     7     7     8   ar
     8     8     4   ar
@<TRIPOS>MOLECULE
*****
 8 8 0 0 0
SMALL
GASTEIGER

@<TRIPOS>ATOM
      1 C          62.0344   85.9933    9.1152 C.3     1  UNL1        0.0983
      2 C          62.1382   85.5290   10.5377 C.2     1  UNL1        0.2430
      3 O          61.3435   86.2135   11.6099 O.2     1  UNL1       -0.2716
      4 N          63.0368   84.3801   10.8879 N.ar    1  UNL1       -0.2573
      5 C          63.2423   83.8077   12.2591 C.ar    1  UNL1        0.1048
      6 C          64.2202   82.6758   12.1472 C.ar    1  UNL1        0.1197
      7 N          64.6191   82.5486   10.7068 N.ar    1  UNL1       -0.2219
      8 C          63.8877   83.6019    9.9286 C.ar    1  UNL1        0.1850
@<TRIPOS>BOND
     1     1     2    1
     2     2     3    2
     3     2     4   am
     4     4     5   ar
     5     5     6   ar
     6     6     7   ar
     7     7     8   ar
     8     8     4   ar
@<TRIPOS>MOLECULE
*****
 8 8 0 0 0
SMALL
GASTEIGER

@<TRIPOS>ATOM
      1 C          63.1548   85.1707   12.7251 C.3     1  UNL1        0.0983
      2 C          62.5509   84.2002   13.6964 C.2     1  UNL1        0.2430
      3 O          61.9789   84.6939   14.9922 O.2     1  UNL1       -0.2716
      4 N          62.5191   82.7361   13.3719 N.ar    1  UNL1       -0.2573
      5 C          61.9511   81.6528   14.2400 C.ar    1  UNL1        0.1048
      6 C          62.1306   80.3454   13.5270 C.ar    1  UNL1        0.1197
      7 N          62.8095   80.6207   12.2181 N.ar    1  UNL1       -0.2219
      8 C          63.0496   82.0982   12.1222 C.ar    1  UNL1        0.1850
@<TRIPOS>BOND
     1     1     2    1
     2     2     3    2
     3     2     4   am
     4     4     5   ar
     5     5     6   ar
     6     6     7   ar
     7     7     8   ar
     8     8     4   ar
@<TRIPOS>MOLECULE
*****
 8 8 0 0 0
SMALL
GASTEIGER

@<TRIPOS>ATOM
      1 C          67.9656   93.3642   15.7792 C.3     1  UNL1        0.0983
      2 C          67.3305   92.5119   14.7208 C.2     1  UNL1        0.2430
      3 O          68.0788   92.2022   13.4583 O.2     1  UNL1       -0.2716
      4 N          65.9471   91.9692   14.9251 N.ar    1  UNL1       -0.2573
      5 C          65.1868   91.1074   13.9611 C.ar    1  UNL1        0.1048
      6 C          63.8509   90.7986   14.5694 C.ar    1  UNL1        0.1197
      7 N          63.7856   91.4695   15.9094 N.ar    1  UNL1       -0.2219
      8 C          65.0811   92.1929   16.1292 C.ar    1  UNL1        0.1850
@<TRIPOS>BOND
     1     1     2    1
     2     2     3    2
     3     2     4   am
     4     4     5   ar
     5     5     6   ar
     6     6     7   ar
     7     7     8   ar
     8     8     4   ar
@<TRIPOS>MOLECULE
*****
 8 8 0 0 0
SMALL
GASTEIGER

@<TRIPOS>ATOM
      1 C          64.1060   82.6989   10.3386 C.3     1  UNL1        0.0983
      2 C          63.3901   83.6692   11.2308 C.2     1  UNL1        0.2430
      3 O          62.7617   84.9004   10.6483 O.2     1  UNL1       -0.2716
      4 N          63.3026   83.4083   12.7053 N.ar    1  UNL1       -0.2573
      5 C          62.6232   84.2833   13.7167 C.ar    1  UNL1        0.1048
      6 C          62.7798   83.6424   15.0638 C.ar    1  UNL1        0.1197
      7 N          63.5560   82.3713   14.8850 N.ar    1  UNL1       -0.2219
      8 C          63.8790   82.2267   13.4274 C.ar    1  UNL1        0.1850
@<TRIPOS>BOND
     1     1     2    1
     2     2     3    2
     3     2     4   am
     4     4     5   ar
     5     5     6   ar
     6     6     7   ar
     7     7     8   ar
     8     8     4   ar
@<TRIPOS>MOLECULE
*****
 8 8 0 0 0
SMALL
GASTEIGER

@<TRIPOS>ATOM
      1 C          63.2985   84.3925    9.5406 C.3     1  UNL1        0.0983
      2 C          63.9155   83.5435   10.6123 C.2     1  UNL1        0.2430
      3 O          64.8523   82.4320   10.2421 O.2     1  UNL1       -0.2716
      4 N          63.5959   83.8061   12.0541 N.ar    1  UNL1       -0.2573
      5 C          64.1338   83.0447   13.2293 C.ar    1  UNL1        0.1048
      6 C          63.5525   83.6442   14.4754 C.ar    1  UNL1        0.1197
      7 N          62.6555   84.7761   14.0704 N.ar    1  UNL1       -0.2219
      8 C          62.6823   84.8761   12.5740 C.ar    1  UNL1        0.1850
@<TRIPOS>BOND
     1     1     2    1
     2     2     3    2
     3     2     4   am
     4     4     5   ar
     5     5     6   ar
     6     6     7   ar
     7     7     8   ar
     8     8     4   ar
@<TRIPOS>MOLECULE
*****
 8 8 0 0 0
SMALL
GASTEIGER

@<TRIPOS>ATOM
      1 C          59.6740   86.4170    7.7909 C.3     1  UNL1        0.0983
      2 C          59.6801   87.8798    8.1227 C.2     1  UNL1        0.2430
      3 O          59.2341   88.8825    7.1002 O.2     1  UNL1       -0.2716
      4 N          60.1322   88.3399    9.4769 N.ar    1  UNL1       -0.2573
      5 C          60.1925   89.7619    9.9503 C.ar    1  UNL1        0.1048
      6 C          60.7010   89.7596   11.3615 C.ar    1  UNL1        0.1197
      7 N          60.9549   88.3361   11.7603 N.ar    1  UNL1       -0.2219
      8 C          60.6034   87.4586   10.5955 C.ar    1  UNL1        0.1850
@<TRIPOS>BOND
     1     1     2    1
     2     2     3    2
     3     2     4   am
     4     4     5   ar
     5     5     6   ar
     6     6     7   ar
     7     7     8   ar
     8     8     4   ar
