@<TRIPOS>MOLECULE
*****
 20 21 0 0 0
SMALL
GASTEIGER

@<TRIPOS>ATOM
      1 C          66.5689   92.4280   12.5981 C.3     1  UNL1        0.1631
      2 C          66.9699   93.1652   11.3548 C.ar    1  UNL1        0.1650
      3 C          67.3955   92.5415   10.0587 C.ar    1  UNL1        0.0602
      4 C          67.7044   93.6463    9.0921 C.ar    1  UNL1        0.1435
      5 N          67.4696   94.9527    9.7909 N.ar    1  UNL1       -0.0757
      6 O          67.0157   94.6553   11.1893 O.2     1  UNL1       -0.3572
      7 C          67.6188   91.8293   13.4865 C.2     1  UNL1        0.3242
      8 O          69.0095   91.6169   12.9662 O.2     1  UNL1       -0.2496
      9 O          67.2778   91.4429   14.8953 O.3     1  UNL1       -0.4482
     10 C          68.3018   93.6611   15.7791 C.3     1  UNL1        0.0513
     11 C          67.7427   92.2938   16.0398 C.3     1  UNL1        0.2086
     12 C          65.1181   92.2896   12.9530 C.3     1  UNL1        0.0461
     13 C          64.2582   91.3012   12.2224 C.ar    1  UNL1       -0.0106
     14 C          63.7727   91.6095   10.8370 C.ar    1  UNL1       -0.0025
     15 C          62.9128   90.6212   10.1064 C.ar    1  UNL1        0.0111
     16 C          62.5386   89.3246   10.7611 C.ar    1  UNL1        0.0585
     17 CL         61.6787   88.3362   10.0305 Cl      1  UNL1       -0.0822
     18 C          63.0241   89.0163   12.1465 C.ar    1  UNL1        0.0225
     19 C          63.8840   90.0046   12.8771 C.ar    1  UNL1        0.0546
     20 CL         64.3695   89.6964   14.2624 Cl      1  UNL1       -0.0825
@<TRIPOS>BOND
     1    10    11    1
     2    11     9    1
     3     9     7    1
     4     7     8    2
     5     7     1    1
     6     1    12    1
     7    12    13    1
     8    13    14   ar
     9    14    15   ar
    10    15    16   ar
    11    16    17    1
    12    16    18   ar
    13    18    19   ar
    14    19    20    1
    15     1     2    1
    16     2     3   ar
    17     3     4   ar
    18     4     5   ar
    19     5     6   ar
    20    19    13   ar
    21     6     2   ar
@<TRIPOS>MOLECULE
*****
 20 21 0 0 0
SMALL
GASTEIGER

@<TRIPOS>ATOM
      1 C          66.1429   92.1125   12.9567 C.3     1  UNL1        0.1631
      2 C          65.1347   91.5568   13.9184 C.ar    1  UNL1        0.1650
      3 C          64.1962   90.4175   13.6513 C.ar    1  UNL1        0.0602
      4 C          63.3694   90.1995   14.8838 C.ar    1  UNL1        0.1435
      5 N          63.7969   91.2040   15.9125 N.ar    1  UNL1       -0.0757
      6 O          64.8879   92.0429   15.3158 O.2     1  UNL1       -0.3572
      7 C          67.4678   92.6039   13.4598 C.2     1  UNL1        0.3242
      8 O          68.7353   91.9465   13.0002 O.2     1  UNL1       -0.2496
      9 O          67.5252   93.7527   14.4227 O.3     1  UNL1       -0.4482
     10 C          68.3280   92.2845   16.4100 C.3     1  UNL1        0.0513
     11 C          68.2750   93.6122   15.7142 C.3     1  UNL1        0.2086
     12 C          65.8263   92.1767   11.4919 C.3     1  UNL1        0.0461
     13 C          66.2897   93.3462   10.6749 C.ar    1  UNL1       -0.0106
     14 C          65.5987   94.6714   10.8030 C.ar    1  UNL1       -0.0025
     15 C          66.0620   95.8409    9.9861 C.ar    1  UNL1        0.0111
     16 C          67.2164   95.6853    9.0411 C.ar    1  UNL1        0.0585
     17 CL         67.6799   96.8549    8.2241 Cl      1  UNL1       -0.0822
     18 C          67.9075   94.3602    8.9130 C.ar    1  UNL1        0.0225
     19 C          67.4441   93.1906    9.7299 C.ar    1  UNL1        0.0546
     20 CL         68.1352   91.8655    9.6019 Cl      1  UNL1       -0.0825
@<TRIPOS>BOND
     1    10    11    1
     2    11     9    1
     3     9     7    1
     4     7     8    2
     5     7     1    1
     6     1    12    1
     7    12    13    1
     8    13    14   ar
     9    14    15   ar
    10    15    16   ar
    11    16    17    1
    12    16    18   ar
    13    18    19   ar
    14    19    20    1
    15     1     2    1
    16     2     3   ar
    17     3     4   ar
    18     4     5   ar
    19     5     6   ar
    20    19    13   ar
    21     6     2   ar
@<TRIPOS>MOLECULE
*****
 20 21 0 0 0
SMALL
GASTEIGER

@<TRIPOS>ATOM
      1 C          63.2629   83.6053   14.1794 C.3     1  UNL1        0.1631
      2 C          62.9121   84.5872   15.2578 C.ar    1  UNL1        0.1650
      3 C          63.8831   85.4164   16.0450 C.ar    1  UNL1        0.0602
      4 C          63.0998   86.2540   17.0120 C.ar    1  UNL1        0.1435
      5 N          61.6448   85.9424   16.8224 N.ar    1  UNL1       -0.0757
      6 O          61.5288   84.9123   15.7382 O.2     1  UNL1       -0.3572
      7 C          62.8079   82.1800   14.2860 C.2     1  UNL1        0.3242
      8 O          63.8029   81.0640   14.1655 O.2     1  UNL1       -0.2496
      9 O          61.3578   81.8706   14.5132 O.3     1  UNL1       -0.4482
     10 C          59.3388   80.2532   14.2735 C.3     1  UNL1        0.0513
     11 C          60.7765   80.5850   14.0039 C.3     1  UNL1        0.2086
     12 C          64.0687   84.0487   12.9945 C.3     1  UNL1        0.0461
     13 C          63.3783   84.5939   11.7796 C.ar    1  UNL1       -0.0106
     14 C          62.4153   85.7362   11.9134 C.ar    1  UNL1       -0.0025
     15 C          61.7249   86.2814   10.6985 C.ar    1  UNL1        0.0111
     16 C          61.9974   85.6844    9.3498 C.ar    1  UNL1        0.0585
     17 CL         61.3070   86.2296    8.1348 Cl      1  UNL1       -0.0822
     18 C          62.9604   84.5421    9.2159 C.ar    1  UNL1        0.0225
     19 C          63.6508   83.9969   10.4308 C.ar    1  UNL1        0.0546
     20 CL         64.6138   82.8546   10.2969 Cl      1  UNL1       -0.0825
@<TRIPOS>BOND
     1    10    11    1
     2    11     9    1
     3     9     7    1
     4     7     8    2
     5     7     1    1
     6     1    12    1
     7    12    13    1
     8    13    14   ar
     9    14    15   ar
    10    15    16   ar
    11    16    17    1
    12    16    18   ar
    13    18    19   ar
    14    19    20    1
    15     1     2    1
    16     2     3   ar
    17     3     4   ar
    18     4     5   ar
    19     5     6   ar
    20    19    13   ar
    21     6     2   ar
@<TRIPOS>MOLECULE
*****
 20 21 0 0 0
SMALL
GASTEIGER

@<TRIPOS>ATOM
      1 C          64.4029   90.3685   14.5211 C.3     1  UNL1        0.1631
      2 C          65.4569   91.3888   14.2079 C.ar    1  UNL1        0.1650
      3 C          66.8453   91.4247   14.7747 C.ar    1  UNL1        0.0602
      4 C          67.5541   92.6105   14.1901 C.ar    1  UNL1        0.1435
      5 N          66.6036   93.3074   13.2621 N.ar    1  UNL1       -0.0757
      6 O          65.3076   92.5524   13.2732 O.2     1  UNL1       -0.3572
      7 C          63.5066   90.5564   15.7091 C.2     1  UNL1        0.3242
      8 O          63.4987   91.8644   16.4432 O.2     1  UNL1       -0.2496
      9 O          62.6182   89.4362   16.1630 O.3     1  UNL1       -0.4482
     10 C          62.8125   87.0248   17.1103 C.3     1  UNL1        0.0513
     11 C          63.0859   88.4945   17.2329 C.3     1  UNL1        0.2086
     12 C          64.2453   89.1603   13.6463 C.3     1  UNL1        0.0461
     13 C          63.3226   89.2052   12.4645 C.ar    1  UNL1       -0.0106
     14 C          62.9303   90.5249   11.8690 C.ar    1  UNL1       -0.0025
     15 C          62.0077   90.5699   10.6872 C.ar    1  UNL1        0.0111
     16 C          61.4773   89.2952   10.1009 C.ar    1  UNL1        0.0585
     17 CL         60.5545   89.3402    8.9191 Cl      1  UNL1       -0.0822
     18 C          61.8695   87.9755   10.6964 C.ar    1  UNL1        0.0225
     19 C          62.7921   87.9305   11.8782 C.ar    1  UNL1        0.0546
     20 CL         63.1844   86.6108   12.4737 Cl      1  UNL1       -0.0825
@<TRIPOS>BOND
     1    10    11    1
     2    11     9    1
     3     9     7    1
     4     7     8    2
     5     7     1    1
     6     1    12    1
     7    12    13    1
     8    13    14   ar
     9    14    15   ar
    10    15    16   ar
    11    16    17    1
    12    16    18   ar
    13    18    19   ar
    14    19    20    1
    15     1     2    1
    16     2     3   ar
    17     3     4   ar
    18     4     5   ar
    19     5     6   ar
    20    19    13   ar
    21     6     2   ar
@<TRIPOS>MOLECULE
*****
 20 21 0 0 0
SMALL
GASTEIGER

@<TRIPOS>ATOM
      1 C          63.0990   84.1998   12.3826 C.3     1  UNL1        0.1631
      2 C          63.1425   84.6602   13.8096 C.ar    1  UNL1        0.1650
      3 C          64.3672   85.0947   14.5588 C.ar    1  UNL1        0.0602
      4 C          63.9506   85.4700   15.9502 C.ar    1  UNL1        0.1435
      5 N          62.4684   85.2674   16.0607 N.ar    1  UNL1       -0.0757
      6 O          61.9690   84.7670   14.7378 O.2     1  UNL1       -0.3572
      7 C          63.9656   83.0601   11.9356 C.2     1  UNL1        0.3242
      8 O          64.8431   83.2136   10.7288 O.2     1  UNL1       -0.2496
      9 O          63.9548   81.7667   12.6954 O.3     1  UNL1       -0.4482
     10 C          61.7719   81.1497   13.9620 C.3     1  UNL1        0.0513
     11 C          62.6913   80.9640   12.7915 C.3     1  UNL1        0.2086
     12 C          62.1889   84.8792   11.4028 C.3     1  UNL1        0.0461
     13 C          62.2952   86.3591   11.1819 C.ar    1  UNL1       -0.0106
     14 C          62.9532   87.2261   12.2141 C.ar    1  UNL1       -0.0025
     15 C          63.0596   88.7059   11.9932 C.ar    1  UNL1        0.0111
     16 C          62.5080   89.3187   10.7402 C.ar    1  UNL1        0.0585
     17 CL         62.6143   90.7986   10.5193 Cl      1  UNL1       -0.0822
     18 C          61.8500   88.4517    9.7080 C.ar    1  UNL1        0.0225
     19 C          61.7436   86.9719    9.9289 C.ar    1  UNL1        0.0546
     20 CL         61.0856   86.1049    8.8967 Cl      1  UNL1       -0.0825
@<TRIPOS>BOND
     1    10    11    1
     2    11     9    1
     3     9     7    1
     4     7     8    2
     5     7     1    1
     6     1    12    1
     7    12    13    1
     8    13    14   ar
     9    14    15   ar
    10    15    16   ar
    11    16    17    1
    12    16    18   ar
    13    18    19   ar
    14    19    20    1
    15     1     2    1
    16     2     3   ar
    17     3     4   ar
    18     4     5   ar
    19     5     6   ar
    20    19    13   ar
    21     6     2   ar
@<TRIPOS>MOLECULE
*****
 20 21 0 0 0
SMALL
GASTEIGER

@<TRIPOS>ATOM
      1 C          65.7130   92.4388   12.6813 C.3     1  UNL1        0.1631
      2 C          66.8513   92.4509   13.6581 C.ar    1  UNL1        0.1650
      3 C          66.7314   92.5424   15.1505 C.ar    1  UNL1        0.0602
      4 C          68.1154   92.5217   15.7288 C.ar    1  UNL1        0.1435
      5 N          69.0905   92.4174   14.5938 N.ar    1  UNL1       -0.0757
      6 O          68.3092   92.3736   13.3140 O.2     1  UNL1       -0.3572
      7 C          65.9075   92.9807   11.2962 C.2     1  UNL1        0.3242
      8 O          65.2525   94.2694   10.8962 O.2     1  UNL1       -0.2496
      9 O          66.7571   92.2338   10.3111 O.3     1  UNL1       -0.4482
     10 C          68.9305   92.2745    8.8882 C.3     1  UNL1        0.0513
     11 C          67.7264   92.9777    9.4411 C.3     1  UNL1        0.2086
     12 C          64.3802   91.8847   13.0896 C.3     1  UNL1        0.0461
     13 C          63.7296   90.8126   12.2665 C.ar    1  UNL1       -0.0106
     14 C          63.1717   91.1407   10.9133 C.ar    1  UNL1       -0.0025
     15 C          62.5212   90.0687   10.0903 C.ar    1  UNL1        0.0111
     16 C          62.4284   88.6686   10.6204 C.ar    1  UNL1        0.0585
     17 CL         61.7778   87.5965    9.7974 Cl      1  UNL1       -0.0822
     18 C          62.9863   88.3405   11.9737 C.ar    1  UNL1        0.0225
     19 C          63.6368   89.4125   12.7967 C.ar    1  UNL1        0.0546
     20 CL         64.1947   89.0845   14.1499 Cl      1  UNL1       -0.0825
@<TRIPOS>BOND
     1    10    11    1
     2    11     9    1
     3     9     7    1
     4     7     8    2
     5     7     1    1
     6     1    12    1
     7    12    13    1
     8    13    14   ar
     9    14    15   ar
    10    15    16   ar
    11    16    17    1
    12    16    18   ar
    13    18    19   ar
    14    19    20    1
    15     1     2    1
    16     2     3   ar
    17     3     4   ar
    18     4     5   ar
    19     5     6   ar
    20    19    13   ar
    21     6     2   ar
@<TRIPOS>MOLECULE
*****
 20 21 0 0 0
SMALL
GASTEIGER

@<TRIPOS>ATOM
      1 C          63.2087   83.8052   13.4978 C.3     1  UNL1        0.1631
      2 C          62.9179   82.3346   13.4446 C.ar    1  UNL1        0.1650
      3 C          62.8750   81.4886   12.2067 C.ar    1  UNL1        0.0602
      4 C          62.5496   80.0829   12.6170 C.ar    1  UNL1        0.1435
      5 N          62.3913   80.0603   14.1085 N.ar    1  UNL1       -0.0757
      6 O          62.6189   81.4519   14.6200 O.2     1  UNL1       -0.3572
      7 C          62.9499   84.5758   14.7585 C.2     1  UNL1        0.3242
      8 O          61.5411   84.8611   15.1873 O.2     1  UNL1       -0.2496
      9 O          64.0999   85.0611   15.5903 O.3     1  UNL1       -0.4482
     10 C          64.3302   87.4610   14.6222 C.3     1  UNL1        0.0513
     11 C          64.9612   86.1854   15.0962 C.3     1  UNL1        0.2086
     12 C          63.7582   84.5052   12.2904 C.3     1  UNL1        0.0461
     13 C          62.8272   85.1721   11.3215 C.ar    1  UNL1       -0.0106
     14 C          61.8375   86.1877   11.8105 C.ar    1  UNL1       -0.0025
     15 C          60.9066   86.8546   10.8417 C.ar    1  UNL1        0.0111
     16 C          60.9653   86.5059    9.3840 C.ar    1  UNL1        0.0585
     17 CL         60.0344   87.1728    8.4152 Cl      1  UNL1       -0.0822
     18 C          61.9550   85.4903    8.8951 C.ar    1  UNL1        0.0225
     19 C          62.8860   84.8234    9.8638 C.ar    1  UNL1        0.0546
     20 CL         63.8757   83.8078    9.3749 Cl      1  UNL1       -0.0825
@<TRIPOS>BOND
     1    10    11    1
     2    11     9    1
     3     9     7    1
     4     7     8    2
     5     7     1    1
     6     1    12    1
     7    12    13    1
     8    13    14   ar
     9    14    15   ar
    10    15    16   ar
    11    16    17    1
    12    16    18   ar
    13    18    19   ar
    14    19    20    1
    15     1     2    1
    16     2     3   ar
    17     3     4   ar
    18     4     5   ar
    19     5     6   ar
    20    19    13   ar
    21     6     2   ar
@<TRIPOS>MOLECULE
*****
 20 21 0 0 0
SMALL
GASTEIGER

@<TRIPOS>ATOM
      1 C          65.9204   92.4668   12.5819 C.3     1  UNL1        0.1631
      2 C          66.8254   92.6585   11.4011 C.ar    1  UNL1        0.1650
      3 C          66.5085   93.4496   10.1667 C.ar    1  UNL1        0.0602
      4 C          67.6934   93.3728    9.2500 C.ar    1  UNL1        0.1435
      5 N          68.7425   92.5342    9.9179 N.ar    1  UNL1       -0.0757
      6 O          68.2061   92.0927   11.2473 O.2     1  UNL1       -0.3572
      7 C          66.4867   92.4805   13.9708 C.2     1  UNL1        0.3242
      8 O          65.5707   92.3902   15.1552 O.2     1  UNL1       -0.2496
      9 O          67.9691   92.5847   14.1754 O.3     1  UNL1       -0.4482
     10 C          69.0875   93.9953   16.0487 C.3     1  UNL1        0.0513
     11 C          68.5292   92.6906   15.5629 C.3     1  UNL1        0.2086
     12 C          64.4492   92.2614   12.3738 C.3     1  UNL1        0.0461
     13 C          63.9089   90.8799   12.1515 C.ar    1  UNL1       -0.0106
     14 C          64.0711   89.8315   13.2120 C.ar    1  UNL1       -0.0025
     15 C          63.5308   88.4500   12.9898 C.ar    1  UNL1        0.0111
     16 C          62.8282   88.1169   11.7071 C.ar    1  UNL1        0.0585
     17 CL         62.2878   86.7353   11.4848 Cl      1  UNL1       -0.0822
     18 C          62.6659   89.1652   10.6466 C.ar    1  UNL1        0.0225
     19 C          63.2062   90.5467   10.8689 C.ar    1  UNL1        0.0546
     20 CL         63.0440   91.5951    9.8084 Cl      1  UNL1       -0.0825
@<TRIPOS>BOND
     1    10    11    1
     2    11     9    1
     3     9     7    1
     4     7     8    2
     5     7     1    1
     6     1    12    1
     7    12    13    1
     8    13    14   ar
     9    14    15   ar
    10    15    16   ar
    11    16    17    1
    12    16    18   ar
    13    18    19   ar
    14    19    20    1
    15     1     2    1
    16     2     3   ar
    17     3     4   ar
    18     4     5   ar
    19     5     6   ar
    20    19    13   ar
    21     6     2   ar
@<TRIPOS>MOLECULE
*****
 20 21 0 0 0
SMALL
GASTEIGER

@<TRIPOS>ATOM
      1 C          64.1478   90.5324   14.3028 C.3     1  UNL1        0.1631
      2 C          65.3558   91.3877   14.0597 C.ar    1  UNL1        0.1650
      3 C          66.7179   91.1785   14.6522 C.ar    1  UNL1        0.0602
      4 C          67.6178   92.2639   14.1401 C.ar    1  UNL1        0.1435
      5 N          66.8118   93.1439   13.2312 N.ar    1  UNL1       -0.0757
      6 O          65.4139   92.6024   13.1815 O.2     1  UNL1       -0.3572
      7 C          63.4464   90.5842   15.6277 C.2     1  UNL1        0.3242
      8 O          63.5678   91.8032   16.4933 O.2     1  UNL1       -0.2496
      9 O          62.6235   89.4171   16.0869 O.3     1  UNL1       -0.4482
     10 C          62.5567   87.2046   17.4470 C.3     1  UNL1        0.0513
     11 C          63.0693   88.6024   17.2648 C.3     1  UNL1        0.2086
     12 C          63.6412   89.6252   13.2210 C.3     1  UNL1        0.0461
     13 C          63.7529   88.1374   13.3763 C.ar    1  UNL1       -0.0106
     14 C          64.5473   87.5593   14.5098 C.ar    1  UNL1       -0.0025
     15 C          64.6591   86.0715   14.6651 C.ar    1  UNL1        0.0111
     16 C          63.9765   85.1620   13.6871 C.ar    1  UNL1        0.0585
     17 CL         64.0882   83.6742   13.8424 Cl      1  UNL1       -0.0822
     18 C          63.1821   85.7401   12.5536 C.ar    1  UNL1        0.0225
     19 C          63.0703   87.2278   12.3982 C.ar    1  UNL1        0.0546
     20 CL         62.2759   87.8059   11.2648 Cl      1  UNL1       -0.0825
@<TRIPOS>BOND
     1    10    11    1
     2    11     9    1
     3     9     7    1
     4     7     8    2
     5     7     1    1
     6     1    12    1
     7    12    13    1
     8    13    14   ar
     9    14    15   ar
    10    15    16   ar
    11    16    17    1
    12    16    18   ar
    13    18    19   ar
    14    19    20    1
    15     1     2    1
    16     2     3   ar
    17     3     4   ar
    18     4     5   ar
    19     5     6   ar
    20    19    13   ar
    21     6     2   ar
