@<TRIPOS>MOLECULE
*****
 34 37 0 0 0
SMALL
GASTEIGER

@<TRIPOS>ATOM
      1 C          60.9796   89.1824   10.7136 C.ar    1  UNL1        0.1391
      2 C          61.4228   89.9932    9.5321 C.ar    1  UNL1        0.0369
      3 C          62.5923   90.9240    9.6574 C.ar    1  UNL1        0.0031
      4 C          63.3188   91.0439   10.9642 C.ar    1  UNL1       -0.0001
      5 C          64.4884   91.9747   11.0895 C.ar    1  UNL1       -0.0024
      6 C          65.2148   92.0947   12.3964 C.ar    1  UNL1       -0.0004
      7 C          64.7716   91.2838   13.5780 C.ar    1  UNL1       -0.0024
      8 C          63.6021   90.3530   13.4527 C.ar    1  UNL1       -0.0002
      9 C          62.8756   90.2331   12.1458 C.ar    1  UNL1        0.0030
     10 C          61.7061   89.3023   12.0205 C.ar    1  UNL1        0.0369
     11 O          59.8100   88.2515   10.5884 O.3     1  UNL1       -0.4706
     12 C          59.8878   87.0689    9.6690 C.3     1  UNL1        0.2320
     13 C          62.8001   84.7280   11.0064 C.ar    1  UNL1        0.0532
     14 C          63.5163   84.4080    9.7279 C.ar    1  UNL1        0.0045
     15 C          63.0230   84.9749    8.4297 C.ar    1  UNL1       -0.0001
     16 C          61.8135   85.8619    8.4101 C.ar    1  UNL1       -0.0007
     17 C          61.0973   86.1819    9.6886 C.ar    1  UNL1        0.0213
     18 C          61.5906   85.6150   10.9868 C.ar    1  UNL1        0.0038
     19 C          63.2740   84.1398   14.9025 C.3     1  UNL1        0.1109
     20 N          62.7807   84.7067   13.6043 N.am    1  UNL1       -0.2992
     21 C          63.2934   84.1610   12.3046 C.2     1  UNL1        0.2459
     22 O          64.2993   83.0484   12.3030 O.2     1  UNL1       -0.2701
     23 H          62.1205   85.4370   13.6054 H       1  UNL1        0.1498
     24 C          66.3844   93.0254   12.5217 C.3     1  UNL1        0.1240
     25 N          67.2552   92.9757   13.7420 N.ar    1  UNL1       -0.3045
     26 C          67.1571   93.8826   14.9328 C.ar    1  UNL1        0.0983
     27 C          68.2182   93.4776   15.9126 C.ar    1  UNL1        0.1193
     28 N          68.9721   92.3204   15.3274 N.ar    1  UNL1       -0.2223
     29 C          68.3769   92.0102   13.9860 C.ar    1  UNL1        0.1788
     30 C          66.6832   94.0061   11.4266 C.3     1  UNL1        0.0827
     31 C          66.1297   95.3985   11.4951 C.3     1  UNL1        0.0197
     32 N          67.5356   93.5942   10.2631 N.3     1  UNL1       -0.2696
     33 C          68.1389   92.2215   10.2241 C.3     1  UNL1        0.0897
     34 C          67.7847   94.5552    9.1385 C.3     1  UNL1        0.0897
@<TRIPOS>BOND
     1    19    20    1
     2    20    21   am
     3    21    22    2
     4    21    13    1
     5    13    14   ar
     6    14    15   ar
     7    15    16   ar
     8    16    17   ar
     9    17    12    1
    10    12    11    1
    11    11     1    1
    12     1     2   ar
    13     2     3   ar
    14     3     4   ar
    15     4     5   ar
    16     5     6   ar
    17     6    24    1
    18    24    30    1
    19    30    31    1
    20    30    32    1
    21    32    33    1
    22    32    34    1
    23    24    25    1
    24    25    26   ar
    25    26    27   ar
    26    27    28   ar
    27    28    29   ar
    28     6     7   ar
    29     7     8   ar
    30     8     9   ar
    31     9    10   ar
    32    17    18   ar
    33    18    13   ar
    34    10     1   ar
    35     9     4   ar
    36    29    25   ar
    37    20    23    1
@<TRIPOS>MOLECULE
*****
 34 37 0 0 0
SMALL
GASTEIGER

@<TRIPOS>ATOM
      1 C          61.0121   88.9896   10.5636 C.ar    1  UNL1        0.1391
      2 C          61.3510   89.9677    9.4781 C.ar    1  UNL1        0.0369
      3 C          62.4643   90.9530    9.6772 C.ar    1  UNL1        0.0031
      4 C          63.2386   90.9602   10.9619 C.ar    1  UNL1       -0.0001
      5 C          64.3520   91.9456   11.1610 C.ar    1  UNL1       -0.0024
      6 C          65.1263   91.9528   12.4456 C.ar    1  UNL1       -0.0004
      7 C          64.7874   90.9746   13.5311 C.ar    1  UNL1       -0.0024
      8 C          63.6741   89.9893   13.3320 C.ar    1  UNL1       -0.0002
      9 C          62.8997   89.9821   12.0474 C.ar    1  UNL1        0.0030
     10 C          61.7864   88.9968   11.8482 C.ar    1  UNL1        0.0369
     11 O          59.8987   88.0042   10.3645 O.3     1  UNL1       -0.4706
     12 C          60.0983   86.8181    9.4682 C.3     1  UNL1        0.2320
     13 C          62.8897   84.5564   11.1542 C.ar    1  UNL1        0.0532
     14 C          63.7322   84.2104    9.9624 C.ar    1  UNL1        0.0045
     15 C          63.3635   84.7337    8.6058 C.ar    1  UNL1       -0.0001
     16 C          62.1522   85.6029    8.4411 C.ar    1  UNL1       -0.0007
     17 C          61.3096   85.9489    9.6329 C.ar    1  UNL1        0.0213
     18 C          61.6784   85.4256   10.9894 C.ar    1  UNL1        0.0038
     19 C          63.1075   84.1888   15.0997 C.3     1  UNL1        0.1109
     20 N          62.7388   84.7120   13.7432 N.am    1  UNL1       -0.2992
     21 C          63.2584   84.0331   12.5107 C.2     1  UNL1        0.2459
     22 O          64.1468   82.8309   12.6348 O.2     1  UNL1       -0.2701
     23 H          62.1557   85.5011   13.6617 H       1  UNL1        0.1498
     24 C          66.2396   92.9381   12.6447 C.3     1  UNL1        0.1240
     25 N          66.5613   93.9337   11.5699 N.ar    1  UNL1       -0.3045
     26 C          66.2250   95.3953   11.5926 C.ar    1  UNL1        0.0983
     27 C          66.7315   96.0075   10.3203 C.ar    1  UNL1        0.1193
     28 N          67.3809   94.9241    9.5112 N.ar    1  UNL1       -0.2223
     29 C          67.2756   93.6425   10.2835 C.ar    1  UNL1        0.1788
     30 C          67.0313   92.9279   13.9188 C.3     1  UNL1        0.0827
     31 C          66.4204   93.4493   15.1856 C.3     1  UNL1        0.0197
     32 N          68.4339   92.3962   13.9259 N.3     1  UNL1       -0.2696
     33 C          69.3384   92.6819   15.0879 C.3     1  UNL1        0.0897
     34 C          68.9320   91.5788   12.7710 C.3     1  UNL1        0.0897
@<TRIPOS>BOND
     1    19    20    1
     2    20    21   am
     3    21    22    2
     4    21    13    1
     5    13    14   ar
     6    14    15   ar
     7    15    16   ar
     8    16    17   ar
     9    17    12    1
    10    12    11    1
    11    11     1    1
    12     1     2   ar
    13     2     3   ar
    14     3     4   ar
    15     4     5   ar
    16     5     6   ar
    17     6    24    1
    18    24    30    1
    19    30    31    1
    20    30    32    1
    21    32    33    1
    22    32    34    1
    23    24    25    1
    24    25    26   ar
    25    26    27   ar
    26    27    28   ar
    27    28    29   ar
    28     6     7   ar
    29     7     8   ar
    30     8     9   ar
    31     9    10   ar
    32    17    18   ar
    33    18    13   ar
    34    10     1   ar
    35     9     4   ar
    36    29    25   ar
    37    20    23    1
@<TRIPOS>MOLECULE
*****
 34 37 0 0 0
SMALL
GASTEIGER

@<TRIPOS>ATOM
      1 C          60.9124   89.0572   11.2194 C.ar    1  UNL1        0.1391
      2 C          61.3460   89.0148   12.6547 C.ar    1  UNL1        0.0369
      3 C          62.4963   89.8598   13.1159 C.ar    1  UNL1        0.0031
      4 C          63.2130   90.7472   12.1418 C.ar    1  UNL1       -0.0001
      5 C          64.3633   91.5923   12.6030 C.ar    1  UNL1       -0.0024
      6 C          65.0800   92.4797   11.6289 C.ar    1  UNL1       -0.0004
      7 C          64.6463   92.5220   10.1935 C.ar    1  UNL1       -0.0024
      8 C          63.4960   91.6770    9.7324 C.ar    1  UNL1       -0.0002
      9 C          62.7794   90.7896   10.7065 C.ar    1  UNL1        0.0030
     10 C          61.6291   89.9446   10.2453 C.ar    1  UNL1        0.0369
     11 O          59.7621   88.2122   10.7582 O.3     1  UNL1       -0.4706
     12 C          59.9560   87.2232    9.6473 C.3     1  UNL1        0.2320
     13 C          62.7499   84.7509   11.0009 C.ar    1  UNL1        0.0532
     14 C          63.4659   84.4082    9.7282 C.ar    1  UNL1        0.0045
     15 C          63.0119   85.0038    8.4285 C.ar    1  UNL1       -0.0001
     16 C          61.8420   85.9421    8.4015 C.ar    1  UNL1       -0.0007
     17 C          61.1260   86.2848    9.6742 C.ar    1  UNL1        0.0213
     18 C          61.5799   85.6892   10.9739 C.ar    1  UNL1        0.0038
     19 C          63.0323   84.0056   14.8886 C.3     1  UNL1        0.1109
     20 N          62.5784   84.6012   13.5889 N.am    1  UNL1       -0.2992
     21 C          63.2038   84.1553   12.3006 C.2     1  UNL1        0.2459
     22 O          64.2831   83.1137   12.3119 O.2     1  UNL1       -0.2701
     23 H          61.8700   85.2848   13.5815 H       1  UNL1        0.1498
     24 C          66.2303   93.3247   12.0901 C.3     1  UNL1        0.1240
     25 N          66.9084   93.0217   13.3933 N.ar    1  UNL1       -0.3045
     26 C          66.7455   93.7896   14.6714 C.ar    1  UNL1        0.0983
     27 C          67.6049   93.1401   15.7152 C.ar    1  UNL1        0.1193
     28 N          68.2990   91.9707   15.0822 N.ar    1  UNL1       -0.2223
     29 C          67.8686   91.8976   13.6471 C.ar    1  UNL1        0.1788
     30 C          66.7025   94.4728   11.2480 C.3     1  UNL1        0.0827
     31 C          66.2975   95.8745   11.5960 C.3     1  UNL1        0.0197
     32 N          67.5798   94.2191   10.0580 N.3     1  UNL1       -0.2696
     33 C          67.7230   95.2673    8.9947 C.3     1  UNL1        0.0897
     34 C          68.3139   92.9170    9.9314 C.3     1  UNL1        0.0897
@<TRIPOS>BOND
     1    19    20    1
     2    20    21   am
     3    21    22    2
     4    21    13    1
     5    13    14   ar
     6    14    15   ar
     7    15    16   ar
     8    16    17   ar
     9    17    12    1
    10    12    11    1
    11    11     1    1
    12     1     2   ar
    13     2     3   ar
    14     3     4   ar
    15     4     5   ar
    16     5     6   ar
    17     6    24    1
    18    24    30    1
    19    30    31    1
    20    30    32    1
    21    32    33    1
    22    32    34    1
    23    24    25    1
    24    25    26   ar
    25    26    27   ar
    26    27    28   ar
    27    28    29   ar
    28     6     7   ar
    29     7     8   ar
    30     8     9   ar
    31     9    10   ar
    32    17    18   ar
    33    18    13   ar
    34    10     1   ar
    35     9     4   ar
    36    29    25   ar
    37    20    23    1
@<TRIPOS>MOLECULE
*****
 34 37 0 0 0
SMALL
GASTEIGER

@<TRIPOS>ATOM
      1 C          60.2037   88.8246    8.5064 C.ar    1  UNL1        0.1391
      2 C          59.8607   87.3949    8.2094 C.ar    1  UNL1        0.0369
      3 C          60.4396   86.2949    9.0488 C.ar    1  UNL1        0.0031
      4 C          61.3616   86.6246   10.1852 C.ar    1  UNL1       -0.0001
      5 C          61.9405   85.5244   11.0247 C.ar    1  UNL1       -0.0024
      6 C          62.8625   85.8541   12.1610 C.ar    1  UNL1       -0.0004
      7 C          63.2055   87.2839   12.4580 C.ar    1  UNL1       -0.0024
      8 C          62.6265   88.3839   11.6185 C.ar    1  UNL1       -0.0002
      9 C          61.7046   88.0543   10.4822 C.ar    1  UNL1        0.0030
     10 C          61.1257   89.1543    9.6427 C.ar    1  UNL1        0.0369
     11 O          59.6248   89.9248    7.6669 O.3     1  UNL1       -0.4706
     12 C          59.3484   89.6912    6.2112 C.3     1  UNL1        0.2320
     13 C          61.4027   91.8541    3.5937 C.ar    1  UNL1        0.0532
     14 C          60.3709   92.8650    3.1894 C.ar    1  UNL1        0.0045
     15 C          58.9982   92.8179    3.7924 C.ar    1  UNL1       -0.0001
     16 C          58.6574   91.7600    4.7996 C.ar    1  UNL1       -0.0007
     17 C          59.6892   90.7492    5.2039 C.ar    1  UNL1        0.0213
     18 C          61.0618   90.7962    4.6009 C.ar    1  UNL1        0.0038
     19 C          64.4846   92.9975    1.3700 C.3     1  UNL1        0.1109
     20 N          63.1119   92.9505    1.9730 N.am    1  UNL1       -0.2992
     21 C          62.7753   91.9012    2.9907 C.2     1  UNL1        0.2459
     22 O          63.8114   90.8989    3.4053 O.2     1  UNL1       -0.2701
     23 H          62.4319   93.6083    1.7009 H       1  UNL1        0.1498
     24 C          63.4414   84.7540   13.0005 C.3     1  UNL1        0.1240
     25 N          63.3776   83.3335   12.5231 N.ar    1  UNL1       -0.3045
     26 C          62.4982   82.2543   13.0816 C.ar    1  UNL1        0.0983
     27 C          62.7591   80.9965   12.3070 C.ar    1  UNL1        0.1193
     28 N          63.7997   81.2983   11.2698 N.ar    1  UNL1       -0.2223
     29 C          64.1820   82.7427   11.4033 C.ar    1  UNL1        0.1788
     30 C          64.0842   85.0745   14.3174 C.3     1  UNL1        0.0827
     31 C          65.5792   85.0967   14.4365 C.3     1  UNL1        0.0197
     32 N          63.2318   85.3728   15.5151 N.3     1  UNL1       -0.2696
     33 C          63.4945   86.6007   16.3355 C.3     1  UNL1        0.0897
     34 C          62.1167   84.4431   15.8924 C.3     1  UNL1        0.0897
@<TRIPOS>BOND
     1    19    20    1
     2    20    21   am
     3    21    22    2
     4    21    13    1
     5    13    14   ar
     6    14    15   ar
     7    15    16   ar
     8    16    17   ar
     9    17    12    1
    10    12    11    1
    11    11     1    1
    12     1     2   ar
    13     2     3   ar
    14     3     4   ar
    15     4     5   ar
    16     5     6   ar
    17     6    24    1
    18    24    30    1
    19    30    31    1
    20    30    32    1
    21    32    33    1
    22    32    34    1
    23    24    25    1
    24    25    26   ar
    25    26    27   ar
    26    27    28   ar
    27    28    29   ar
    28     6     7   ar
    29     7     8   ar
    30     8     9   ar
    31     9    10   ar
    32    17    18   ar
    33    18    13   ar
    34    10     1   ar
    35     9     4   ar
    36    29    25   ar
    37    20    23    1
