@<TRIPOS>MOLECULE
*****
 46 52 0 0 0
SMALL
GASTEIGER

@<TRIPOS>ATOM
      1 C          59.4751   88.6119    7.6023 C.3     1  UNL1        0.1543
      2 O          64.0710   91.1879   16.6848 O.2     1  UNL1       -0.2261
      3 C          64.2170   91.3545   15.2012 C.2     1  UNL1        0.4055
      4 N          65.3696   92.1361   14.6440 N.am    1  UNL1       -0.2501
      5 C          65.5154   92.3026   13.1605 C.ar    1  UNL1        0.0524
      6 C          66.6681   93.0843   12.6032 C.ar    1  UNL1        0.0146
      7 C          66.8140   93.2509   11.1197 C.ar    1  UNL1        0.0013
      8 C          65.8072   92.6357   10.1933 C.ar    1  UNL1       -0.0001
      9 C          64.6546   91.8541   10.7505 C.ar    1  UNL1        0.0003
     10 C          64.5087   91.6875   12.2341 C.ar    1  UNL1        0.0274
     11 C          63.3561   90.9059   12.7913 C.3     1  UNL1        0.1605
     12 C          63.5020   91.0724   11.3078 C.3     1  UNL1        0.0661
     13 C          62.4953   90.4573   10.3814 C.3     1  UNL1        0.0989
     14 N          61.3427   89.6756   10.9386 N.am    1  UNL1       -0.2640
     15 C          60.3360   89.0605   10.0122 C.2     1  UNL1        0.3043
     16 O          59.1834   88.2789   10.5694 O.2     1  UNL1       -0.2526
     17 N          60.4818   89.2271    8.5287 N.am    1  UNL1       -0.2822
     18 C          61.1968   89.5091   12.4221 C.3     1  UNL1        0.0989
     19 C          62.2035   90.1242   13.3485 C.3     1  UNL1        0.0661
     20 O          63.2102   90.7394   14.2748 O.3     1  UNL1       -0.4374
     21 H          66.0303   92.5398   15.2520 H       1  UNL1        0.1582
     22 H          61.2383   89.7401    8.1630 H       1  UNL1        0.1514
     23 C          58.6193   89.4881    6.7362 C.2     1  UNL1        0.2439
     24 O          57.1275   89.4681    6.8912 O.2     1  UNL1       -0.2731
     25 N          59.2553   90.3840    5.7151 N.am    1  UNL1       -0.2781
     26 C          60.7472   90.4040    5.5601 C.3     1  UNL1        0.0948
     27 C          61.3832   91.3000    4.5390 C.3     1  UNL1        0.0375
     28 C          60.5274   92.1761    3.6729 C.3     1  UNL1        0.0609
     29 C          59.0355   92.1561    3.8279 C.3     1  UNL1        0.0375
     30 C          58.3995   91.2601    4.8490 C.3     1  UNL1        0.0948
     31 N          61.1634   93.0721    2.6519 N.3     1  UNL1       -0.2738
     32 C          62.5678   92.8099    2.1949 C.3     1  UNL1        0.0720
     33 C          63.2039   93.7060    1.1738 C.3     1  UNL1        0.0174
     34 C          62.4354   94.8641    0.6097 C.3     1  UNL1        0.0029
     35 C          61.0310   95.1262    1.0666 C.3     1  UNL1        0.0174
     36 C          60.3950   94.2303    2.0877 C.3     1  UNL1        0.0720
     37 C          59.3242   87.1208    7.5421 C.3     1  UNL1        0.0559
     38 C          60.5392   86.2419    7.5783 C.ar    1  UNL1       -0.0131
     39 C          61.2173   85.6256    6.3908 C.ar    1  UNL1        0.0312
     40 S          62.3866   84.8278    6.8870 S.2     1  UNL1       -0.0868
     41 C          62.4312   84.9510    8.3813 C.ar    1  UNL1        0.0292
     42 C          63.3639   84.3803    9.4081 C.ar    1  UNL1        0.0065
     43 C          63.1548   84.6836   10.8622 C.ar    1  UNL1        0.0005
     44 C          62.0130   85.5576   11.2894 C.ar    1  UNL1        0.0000
     45 C          61.0803   86.1283   10.2626 C.ar    1  UNL1        0.0002
     46 C          61.2894   85.8250    8.8085 C.ar    1  UNL1        0.0026
@<TRIPOS>BOND
     1     2     3    2
     2     3     4   am
     3     4     5    1
     4     5     6   ar
     5     6     7   ar
     6     7     8   ar
     7     8     9   ar
     8     9    10   ar
     9    10    11    1
    10    11    12    1
    11    12    13    1
    12    13    14    1
    13    14    15   am
    14    15    16    2
    15    15    17   am
    16    17     1    1
    17     1    37    1
    18    37    38    1
    19    38    39   ar
    20    39    40   ar
    21    40    41   ar
    22    41    42   ar
    23    42    43   ar
    24    43    44   ar
    25    44    45   ar
    26    45    46   ar
    27     1    23    1
    28    23    24    2
    29    23    25   am
    30    25    26    1
    31    26    27    1
    32    27    28    1
    33    28    31    1
    34    31    32    1
    35    32    33    1
    36    33    34    1
    37    34    35    1
    38    35    36    1
    39    28    29    1
    40    29    30    1
    41    14    18    1
    42    18    19    1
    43    11    20    1
    44    20     3    1
    45    10     5   ar
    46    19    11    1
    47    46    38   ar
    48    30    25    1
    49    46    41   ar
    50    36    31    1
    51     4    21    1
    52    17    22    1
@<TRIPOS>MOLECULE
*****
 46 52 0 0 0
SMALL
GASTEIGER

@<TRIPOS>ATOM
      1 C          64.5252   89.8081   14.6727 C.3     1  UNL1        0.1543
      2 O          57.6676   88.7146    6.7970 O.2     1  UNL1       -0.2261
      3 C          58.8916   88.0821    7.3904 C.2     1  UNL1        0.4055
      4 N          59.4782   86.8516    6.7647 N.am    1  UNL1       -0.2501
      5 C          60.7021   86.2192    7.3582 C.ar    1  UNL1        0.0524
      6 C          61.2888   84.9885    6.7325 C.ar    1  UNL1        0.0146
      7 C          62.5126   84.3561    7.3260 C.ar    1  UNL1        0.0013
      8 C          63.1498   84.9543    8.5451 C.ar    1  UNL1       -0.0001
      9 C          62.5632   86.1848    9.1707 C.ar    1  UNL1        0.0003
     10 C          61.3392   86.8173    8.5773 C.ar    1  UNL1        0.0274
     11 C          60.7526   88.0479    9.2029 C.3     1  UNL1        0.1605
     12 C          61.9764   87.4155    9.7964 C.3     1  UNL1        0.0661
     13 C          62.6136   88.0136   11.0155 C.3     1  UNL1        0.0989
     14 N          62.0270   89.2442   11.6411 N.am    1  UNL1       -0.2640
     15 C          62.6642   89.8424   12.8602 C.2     1  UNL1        0.3043
     16 O          62.0775   91.0729   13.4859 O.2     1  UNL1       -0.2526
     17 N          63.8880   89.2100   13.4537 N.am    1  UNL1       -0.2822
     18 C          60.8031   89.8766   11.0477 C.3     1  UNL1        0.0989
     19 C          60.1659   89.2785    9.8286 C.3     1  UNL1        0.0661
     20 O          59.5287   88.6803    8.6095 O.3     1  UNL1       -0.4374
     21 H          59.0600   86.4590    5.9646 H       1  UNL1        0.1582
     22 H          64.2731   88.4023   13.0430 H       1  UNL1        0.1514
     23 C          65.7633   90.6442   14.5382 C.2     1  UNL1        0.2439
     24 O          66.8896   90.4791   15.5150 O.2     1  UNL1       -0.2731
     25 N          65.8751   91.6454   13.4268 N.am    1  UNL1       -0.2781
     26 C          64.7489   91.8105   12.4500 C.3     1  UNL1        0.0948
     27 C          64.8607   92.8117   11.3386 C.3     1  UNL1        0.0375
     28 C          66.0988   93.6477   11.2041 C.3     1  UNL1        0.0609
     29 C          67.2251   93.4826   12.1809 C.3     1  UNL1        0.0375
     30 C          67.1133   92.4815   13.2923 C.3     1  UNL1        0.0948
     31 N          66.2106   94.6489   10.0927 N.3     1  UNL1       -0.2738
     32 C          67.2148   94.4445    8.9973 C.3     1  UNL1        0.0720
     33 C          67.3265   95.4457    7.8859 C.3     1  UNL1        0.0174
     34 C          66.4342   96.6513    7.8700 C.3     1  UNL1        0.0029
     35 C          65.4301   96.8557    8.9654 C.3     1  UNL1        0.0174
     36 C          65.3183   95.8545   10.0767 C.3     1  UNL1        0.0720
     37 C          63.9243   89.5703   16.0264 C.3     1  UNL1        0.0559
     38 C          63.4969   88.1888   16.4250 C.ar    1  UNL1       -0.0131
     39 C          62.5794   87.8428   17.5601 C.ar    1  UNL1        0.0312
     40 S          62.4274   86.3510   17.5951 S.2     1  UNL1       -0.0868
     41 C          63.2509   85.7749   16.4816 C.ar    1  UNL1        0.0292
     42 C          63.4843   84.3628   16.0327 C.ar    1  UNL1        0.0065
     43 C          64.3787   84.0866   14.8606 C.ar    1  UNL1        0.0005
     44 C          65.0397   85.2224   14.1375 C.ar    1  UNL1        0.0000
     45 C          64.8063   86.6345   14.5863 C.ar    1  UNL1        0.0002
     46 C          63.9119   86.9107   15.7584 C.ar    1  UNL1        0.0026
@<TRIPOS>BOND
     1     2     3    2
     2     3     4   am
     3     4     5    1
     4     5     6   ar
     5     6     7   ar
     6     7     8   ar
     7     8     9   ar
     8     9    10   ar
     9    10    11    1
    10    11    12    1
    11    12    13    1
    12    13    14    1
    13    14    15   am
    14    15    16    2
    15    15    17   am
    16    17     1    1
    17     1    37    1
    18    37    38    1
    19    38    39   ar
    20    39    40   ar
    21    40    41   ar
    22    41    42   ar
    23    42    43   ar
    24    43    44   ar
    25    44    45   ar
    26    45    46   ar
    27     1    23    1
    28    23    24    2
    29    23    25   am
    30    25    26    1
    31    26    27    1
    32    27    28    1
    33    28    31    1
    34    31    32    1
    35    32    33    1
    36    33    34    1
    37    34    35    1
    38    35    36    1
    39    28    29    1
    40    29    30    1
    41    14    18    1
    42    18    19    1
    43    11    20    1
    44    20     3    1
    45    10     5   ar
    46    19    11    1
    47    46    38   ar
    48    30    25    1
    49    46    41   ar
    50    36    31    1
    51     4    21    1
    52    17    22    1
@<TRIPOS>MOLECULE
*****
 46 52 0 0 0
SMALL
GASTEIGER

@<TRIPOS>ATOM
      1 C          60.1382   88.3531    8.2290 C.3     1  UNL1        0.1543
      2 O          58.4984   94.9942    0.2630 O.2     1  UNL1       -0.2261
      3 C          59.5894   94.2371    0.9608 C.2     1  UNL1        0.4055
      4 N          61.0067   94.3540    0.4840 N.am    1  UNL1       -0.2501
      5 C          62.0975   93.5970    1.1818 C.ar    1  UNL1        0.0524
      6 C          63.5150   93.7139    0.7051 C.ar    1  UNL1        0.0146
      7 C          64.6058   92.9568    1.4029 C.ar    1  UNL1        0.0013
      8 C          64.2793   92.0829    2.5774 C.ar    1  UNL1       -0.0001
      9 C          62.8619   91.9659    3.0541 C.ar    1  UNL1        0.0003
     10 C          61.7710   92.7230    2.3563 C.ar    1  UNL1        0.0274
     11 C          60.3536   92.6061    2.8331 C.3     1  UNL1        0.1605
     12 C          61.4444   91.8490    3.5309 C.3     1  UNL1        0.0661
     13 C          61.1178   90.9750    4.7054 C.3     1  UNL1        0.0989
     14 N          59.7005   90.8581    5.1821 N.am    1  UNL1       -0.2640
     15 C          59.3739   89.9841    6.3567 C.2     1  UNL1        0.3043
     16 O          57.9565   89.8672    6.8334 O.2     1  UNL1       -0.2526
     17 N          60.4647   89.2271    7.0544 N.am    1  UNL1       -0.2822
     18 C          58.6097   91.6152    4.4844 C.3     1  UNL1        0.0989
     19 C          58.9362   92.4891    3.3098 C.3     1  UNL1        0.0661
     20 O          59.2628   93.3631    2.1353 O.3     1  UNL1       -0.4374
     21 H          61.2211   94.9277   -0.2868 H       1  UNL1        0.1582
     22 H          61.3950   89.3038    6.7416 H       1  UNL1        0.1514
     23 C          59.9699   88.9589    9.5909 C.2     1  UNL1        0.2439
     24 O          58.6430   88.8842   10.2863 O.2     1  UNL1       -0.2731
     25 N          61.1286   89.6395   10.2573 N.am    1  UNL1       -0.2781
     26 C          62.4556   89.7143    9.5619 C.3     1  UNL1        0.0948
     27 C          63.6143   90.3950   10.2284 C.3     1  UNL1        0.0375
     28 C          63.4461   91.0008   11.5902 C.3     1  UNL1        0.0609
     29 C          62.1191   90.9260   12.2856 C.3     1  UNL1        0.0375
     30 C          60.9604   90.2454   11.6192 C.3     1  UNL1        0.0948
     31 N          64.6048   91.6814   12.2566 N.3     1  UNL1       -0.2738
     32 C          65.0171   91.2768   13.6409 C.3     1  UNL1        0.0720
     33 C          66.1759   91.9575   14.3074 C.3     1  UNL1        0.0174
     34 C          66.9222   93.0426   13.5895 C.3     1  UNL1        0.0029
     35 C          66.5099   93.4472   12.2052 C.3     1  UNL1        0.0174
     36 C          65.3512   92.7666   11.5387 C.3     1  UNL1        0.0720
     37 C          59.9798   86.8733    8.0416 C.3     1  UNL1        0.0559
     38 C          61.1639   85.9663    8.2003 C.ar    1  UNL1       -0.0131
     39 C          61.9280   85.3111    7.0881 C.ar    1  UNL1        0.0312
     40 S          63.0282   84.4951    7.6994 S.2     1  UNL1       -0.0868
     41 C          62.9441   84.6459    9.1895 C.ar    1  UNL1        0.0292
     42 C          63.7677   84.0727   10.3044 C.ar    1  UNL1        0.0065
     43 C          63.4392   84.4088   11.7288 C.ar    1  UNL1        0.0005
     44 C          62.2871   85.3181   12.0384 C.ar    1  UNL1        0.0000
     45 C          61.4634   85.8912   10.9234 C.ar    1  UNL1        0.0002
     46 C          61.7919   85.5551    9.4990 C.ar    1  UNL1        0.0026
@<TRIPOS>BOND
     1     2     3    2
     2     3     4   am
     3     4     5    1
     4     5     6   ar
     5     6     7   ar
     6     7     8   ar
     7     8     9   ar
     8     9    10   ar
     9    10    11    1
    10    11    12    1
    11    12    13    1
    12    13    14    1
    13    14    15   am
    14    15    16    2
    15    15    17   am
    16    17     1    1
    17     1    37    1
    18    37    38    1
    19    38    39   ar
    20    39    40   ar
    21    40    41   ar
    22    41    42   ar
    23    42    43   ar
    24    43    44   ar
    25    44    45   ar
    26    45    46   ar
    27     1    23    1
    28    23    24    2
    29    23    25   am
    30    25    26    1
    31    26    27    1
    32    27    28    1
    33    28    31    1
    34    31    32    1
    35    32    33    1
    36    33    34    1
    37    34    35    1
    38    35    36    1
    39    28    29    1
    40    29    30    1
    41    14    18    1
    42    18    19    1
    43    11    20    1
    44    20     3    1
    45    10     5   ar
    46    19    11    1
    47    46    38   ar
    48    30    25    1
    49    46    41   ar
    50    36    31    1
    51     4    21    1
    52    17    22    1
@<TRIPOS>MOLECULE
*****
 46 52 0 0 0
SMALL
GASTEIGER

@<TRIPOS>ATOM
      1 C          62.2113   86.0472   11.5368 C.3     1  UNL1        0.1543
      2 O          67.4401   93.6630   16.5277 O.2     1  UNL1       -0.2261
      3 C          66.8021   93.3403   15.2090 C.2     1  UNL1        0.4055
      4 N          66.8270   94.3471   14.0974 N.am    1  UNL1       -0.2501
      5 C          66.1890   94.0244   12.7789 C.ar    1  UNL1        0.0524
      6 C          66.2139   95.0312   11.6672 C.ar    1  UNL1        0.0146
      7 C          65.5759   94.7085   10.3486 C.ar    1  UNL1        0.0013
      8 C          64.9130   93.3790   10.1416 C.ar    1  UNL1       -0.0001
      9 C          64.8880   92.3722   11.2532 C.ar    1  UNL1        0.0003
     10 C          65.5261   92.6949   12.5718 C.ar    1  UNL1        0.0274
     11 C          65.5011   91.6881   13.6834 C.3     1  UNL1        0.1605
     12 C          64.8631   91.3653   12.3648 C.3     1  UNL1        0.0661
     13 C          64.2002   90.0358   12.1578 C.3     1  UNL1        0.0989
     14 N          64.1752   89.0290   13.2694 N.am    1  UNL1       -0.2640
     15 C          63.5123   87.6995   13.0624 C.2     1  UNL1        0.3043
     16 O          63.4874   86.6927   14.1740 O.2     1  UNL1       -0.2526
     17 N          62.8743   87.3767   11.7438 N.am    1  UNL1       -0.2822
     18 C          64.8133   89.3517   14.5880 C.3     1  UNL1        0.0989
     19 C          65.4762   90.6813   14.7950 C.3     1  UNL1        0.0661
     20 O          66.1391   92.0108   15.0020 O.3     1  UNL1       -0.4374
     21 H          67.2621   95.2198   14.2333 H       1  UNL1        0.1582
     22 H          62.8906   88.0376   11.0142 H       1  UNL1        0.1514
     23 C          61.7414   85.6483   10.1693 C.2     1  UNL1        0.2439
     24 O          61.8853   84.2270    9.7118 O.2     1  UNL1       -0.2731
     25 N          61.1277   86.6706    9.2593 N.am    1  UNL1       -0.2781
     26 C          60.9838   88.0919    9.7168 C.3     1  UNL1        0.0948
     27 C          60.3700   89.1142    8.8067 C.3     1  UNL1        0.0375
     28 C          59.9002   88.7153    7.4392 C.3     1  UNL1        0.0609
     29 C          60.0440   87.2940    6.9817 C.3     1  UNL1        0.0375
     30 C          60.6578   86.2717    7.8917 C.3     1  UNL1        0.0948
     31 N          59.2864   89.7376    6.5292 N.3     1  UNL1       -0.2738
     32 C          60.1637   90.6837    5.7641 C.3     1  UNL1        0.0720
     33 C          59.5499   91.7060    4.8541 C.3     1  UNL1        0.0174
     34 C          58.0589   91.7823    4.7092 C.3     1  UNL1        0.0029
     35 C          57.1816   90.8363    5.4743 C.3     1  UNL1        0.0174
     36 C          57.7953   89.8139    6.3843 C.3     1  UNL1        0.0720
     37 C          62.0183   85.1166   12.6973 C.3     1  UNL1        0.0559
     38 C          62.8334   83.8613   12.7956 C.ar    1  UNL1       -0.0131
     39 C          64.2856   83.7233   12.4463 C.ar    1  UNL1        0.0312
     40 S          64.6892   82.3002   12.6954 S.2     1  UNL1       -0.0868
     41 C          63.4863   81.5586   13.1985 C.ar    1  UNL1        0.0292
     42 C          63.2872   80.1295   13.6083 C.ar    1  UNL1        0.0065
     43 C          61.9411   79.6652   14.0800 C.ar    1  UNL1        0.0005
     44 C          60.7942   80.6299   14.1419 C.ar    1  UNL1        0.0000
     45 C          60.9934   82.0591   13.7322 C.ar    1  UNL1        0.0002
     46 C          62.3394   82.5234   13.2605 C.ar    1  UNL1        0.0026
@<TRIPOS>BOND
     1     2     3    2
     2     3     4   am
     3     4     5    1
     4     5     6   ar
     5     6     7   ar
     6     7     8   ar
     7     8     9   ar
     8     9    10   ar
     9    10    11    1
    10    11    12    1
    11    12    13    1
    12    13    14    1
    13    14    15   am
    14    15    16    2
    15    15    17   am
    16    17     1    1
    17     1    37    1
    18    37    38    1
    19    38    39   ar
    20    39    40   ar
    21    40    41   ar
    22    41    42   ar
    23    42    43   ar
    24    43    44   ar
    25    44    45   ar
    26    45    46   ar
    27     1    23    1
    28    23    24    2
    29    23    25   am
    30    25    26    1
    31    26    27    1
    32    27    28    1
    33    28    31    1
    34    31    32    1
    35    32    33    1
    36    33    34    1
    37    34    35    1
    38    35    36    1
    39    28    29    1
    40    29    30    1
    41    14    18    1
    42    18    19    1
    43    11    20    1
    44    20     3    1
    45    10     5   ar
    46    19    11    1
    47    46    38   ar
    48    30    25    1
    49    46    41   ar
    50    36    31    1
    51     4    21    1
    52    17    22    1
