@<TRIPOS>MOLECULE
*****
 43 48 0 0 0
SMALL
GASTEIGER

@<TRIPOS>ATOM
      1 C          61.5334   87.5908   10.0941 C.3     1  UNL1        0.0069
      2 C          62.2311   88.0908   11.3243 C.3     1  UNL1        0.0738
      3 C          61.6317   89.1757   10.4795 C.3     1  UNL1        0.0136
      4 C          61.7622   90.6103   10.8974 C.3     1  UNL1        0.0261
      5 C          62.4922   90.9601   12.1603 C.2     1  UNL1       -0.0278
      6 C          63.0916   89.8752   13.0051 C.2     1  UNL1        0.0066
      7 C          62.9610   88.4406   12.5872 C.3     1  UNL1        0.2048
      8 C          63.4440   87.1652   13.2118 C.2     1  UNL1        0.3456
      9 O          64.2218   87.0484   14.4890 O.2     1  UNL1       -0.2471
     10 O          63.0125   86.0272   12.3350 O.3     1  UNL1       -0.4503
     11 C          62.2629   86.5992   11.1684 C.3     1  UNL1        0.1746
     12 C          61.5325   86.2333    9.9025 C.3     1  UNL1        0.0815
     13 C          60.8844   87.2046    8.9608 C.3     1  UNL1        0.1804
     14 O          60.8348   85.7334    8.6723 O.3     1  UNL1       -0.3763
     15 C          60.1868   86.7046    7.7306 C.2     1  UNL1        0.3415
     16 O          60.1371   85.2336    7.4421 O.2     1  UNL1       -0.2475
     17 O          59.5387   87.6759    6.7889 O.3     1  UNL1       -0.4460
     18 C          59.5883   89.1470    7.0774 C.3     1  UNL1        0.1944
     19 C          60.2860   89.6470    8.3076 C.3     1  UNL1        0.0512
     20 C          60.9340   88.6757    9.2492 C.3     1  UNL1        0.0369
     21 C          60.9837   90.1469    9.5378 C.3     1  UNL1        0.0030
     22 H          61.2978   85.2504    9.3746 H       1  UNL1        0.2109
     23 C          58.9403   90.1183    6.1357 C.ar    1  UNL1        0.0580
     24 C          59.6538   91.0765    5.2286 C.ar    1  UNL1        0.0430
     25 C          58.6195   91.8523    4.4680 C.ar    1  UNL1        0.1795
     26 O          57.2668   91.3734    4.9051 O.2     1  UNL1       -0.4475
     27 C          57.4651   90.3018    5.9357 C.ar    1  UNL1        0.1789
     28 O          63.7153   88.6364   13.8689 O.3     1  UNL1       -0.3183
     29 C          64.3964   89.9437   14.1460 C.3     1  UNL1        0.2663
     30 O          65.3540   90.5177   13.1442 O.3     1  UNL1       -0.3260
     31 C          66.0352   91.8251   13.4214 C.3     1  UNL1        0.1761
     32 C          65.7588   92.5585   14.7003 C.3     1  UNL1        0.1694
     33 O          66.4399   93.8659   14.9775 O.3     1  UNL1       -0.3794
     34 C          64.8012   91.9846   15.7021 C.3     1  UNL1        0.1715
     35 O          64.5248   92.7180   16.9810 O.3     1  UNL1       -0.3794
     36 C          64.1200   90.6772   15.4250 C.3     1  UNL1        0.1964
     37 O          63.1624   90.1033   16.4267 O.3     1  UNL1       -0.3775
     38 H          67.0211   94.0915   14.2344 H       1  UNL1        0.2105
     39 H          63.8883   92.2138   17.5118 H       1  UNL1        0.2105
     40 H          62.8136   89.2612   16.0949 H       1  UNL1        0.2106
     41 C          66.9928   92.3990   12.4195 C.3     1  UNL1        0.1693
     42 O          66.8615   93.8306   11.9913 O.3     1  UNL1       -0.3794
     43 H          66.0296   93.9481   11.5065 H       1  UNL1        0.2105
@<TRIPOS>BOND
     1     2     1    1
     2     2     3    1
     3     3     4    1
     4     4     5    1
     5     5     6    2
     6     6     7    1
     7     7    28    1
     8    29    28    1
     9    29    30    1
    10    30    31    1
    11    31    41    1
    12    41    42    1
    13    31    32    1
    14    32    33    1
    15    32    34    1
    16    34    35    1
    17    34    36    1
    18    36    37    1
    19     7     8    1
    20     8     9    2
    21     8    10    1
    22    10    11    1
    23    11    12    1
    24    12    13    1
    25    13    14    1
    26    13    15    1
    27    15    16    2
    28    15    17    1
    29    17    18    1
    30    18    23    1
    31    23    24   ar
    32    24    25   ar
    33    25    26   ar
    34    26    27   ar
    35    18    19    1
    36    19    20    1
    37    20    21    1
    38     7     2    1
    39    36    29    1
    40    20    13    1
    41    11     2    1
    42    27    23   ar
    43    20     3    1
    44    42    43    1
    45    33    38    1
    46    35    39    1
    47    37    40    1
    48    14    22    1
@<TRIPOS>MOLECULE
*****
 43 48 0 0 0
SMALL
GASTEIGER

@<TRIPOS>ATOM
      1 C          62.8204   87.5904   11.6300 C.3     1  UNL1        0.0069
      2 C          63.2747   88.7777   12.4264 C.3     1  UNL1        0.0738
      3 C          63.4696   87.4643   13.1242 C.3     1  UNL1        0.0136
      4 C          64.0728   87.4267   14.4970 C.3     1  UNL1        0.0261
      5 C          64.4811   88.7025   15.1720 C.2     1  UNL1       -0.0278
      6 C          64.2861   90.0159   14.4742 C.2     1  UNL1        0.0066
      7 C          63.6829   90.0535   13.1014 C.3     1  UNL1        0.2048
      8 C          63.3708   91.1895   12.1729 C.2     1  UNL1        0.3456
      9 O          63.6167   92.6439   12.4455 O.2     1  UNL1       -0.2471
     10 O          62.7696   90.6158   10.9241 O.3     1  UNL1       -0.4503
     11 C          62.7102   89.1252   11.0807 C.3     1  UNL1        0.1746
     12 C          62.2955   87.8516   10.3907 C.3     1  UNL1        0.0815
     13 C          62.4283   86.4707   10.9612 C.3     1  UNL1        0.1804
     14 O          61.8413   86.6643    9.5945 O.3     1  UNL1       -0.3763
     15 C          61.9742   85.2834   10.1649 C.2     1  UNL1        0.3415
     16 O          61.3871   85.4770    8.7983 O.2     1  UNL1       -0.2475
     17 O          62.1070   83.9024   10.7354 O.3     1  UNL1       -0.4460
     18 C          62.6940   83.7088   12.1021 C.3     1  UNL1        0.1944
     19 C          63.1482   84.8961   12.8984 C.3     1  UNL1        0.0512
     20 C          63.0154   86.2770   12.3279 C.3     1  UNL1        0.0369
     21 C          63.6024   86.0834   13.6947 C.3     1  UNL1        0.0030
     22 H          61.8279   87.6101    9.3794 H       1  UNL1        0.2109
     23 C          62.8268   82.3278   12.6725 C.ar    1  UNL1        0.0580
     24 C          62.4209   81.0518   11.9964 C.ar    1  UNL1        0.0430
     25 C          62.7321   79.9158   12.9252 C.ar    1  UNL1        0.1795
     26 O          63.3304   80.4898   14.1752 O.2     1  UNL1       -0.4475
     27 C          63.3889   81.9804   14.0191 C.ar    1  UNL1        0.1789
     28 O          64.0408   91.4039   13.6477 O.3     1  UNL1       -0.3183
     29 C          65.4783   91.7591   13.8870 C.3     1  UNL1        0.2663
     30 O          66.5093   91.4597   12.8395 O.3     1  UNL1       -0.3260
     31 C          67.9469   91.8150   13.0789 C.3     1  UNL1        0.1761
     32 C          68.3534   92.4698   14.3658 C.3     1  UNL1        0.1694
     33 O          69.7909   92.8250   14.6051 O.3     1  UNL1       -0.3794
     34 C          67.3224   92.7692   15.4132 C.3     1  UNL1        0.1715
     35 O          67.7289   93.4239   16.7001 O.3     1  UNL1       -0.3794
     36 C          65.8848   92.4139   15.1740 C.3     1  UNL1        0.1964
     37 O          64.8538   92.7133   16.2214 O.3     1  UNL1       -0.3775
     38 H          70.3206   92.5658   13.8350 H       1  UNL1        0.2105
     39 H          66.9475   93.5453   17.2620 H       1  UNL1        0.2105
     40 H          63.9825   92.4223   15.9100 H       1  UNL1        0.2106
     41 C          68.9778   91.5156   12.0313 C.3     1  UNL1        0.1693
     42 O          68.9183   92.2068   10.7013 O.3     1  UNL1       -0.3794
     43 H          68.1193   91.9276   10.2273 H       1  UNL1        0.2105
@<TRIPOS>BOND
     1     2     1    1
     2     2     3    1
     3     3     4    1
     4     4     5    1
     5     5     6    2
     6     6     7    1
     7     7    28    1
     8    29    28    1
     9    29    30    1
    10    30    31    1
    11    31    41    1
    12    41    42    1
    13    31    32    1
    14    32    33    1
    15    32    34    1
    16    34    35    1
    17    34    36    1
    18    36    37    1
    19     7     8    1
    20     8     9    2
    21     8    10    1
    22    10    11    1
    23    11    12    1
    24    12    13    1
    25    13    14    1
    26    13    15    1
    27    15    16    2
    28    15    17    1
    29    17    18    1
    30    18    23    1
    31    23    24   ar
    32    24    25   ar
    33    25    26   ar
    34    26    27   ar
    35    18    19    1
    36    19    20    1
    37    20    21    1
    38     7     2    1
    39    36    29    1
    40    20    13    1
    41    11     2    1
    42    27    23   ar
    43    20     3    1
    44    42    43    1
    45    33    38    1
    46    35    39    1
    47    37    40    1
    48    14    22    1
@<TRIPOS>MOLECULE
*****
 43 48 0 0 0
SMALL
GASTEIGER

@<TRIPOS>ATOM
      1 C          63.5023   88.7051   12.4833 C.3     1  UNL1        0.0069
      2 C          64.0889   90.0845   12.5413 C.3     1  UNL1        0.0738
      3 C          63.3335   89.7954   11.2780 C.3     1  UNL1        0.0136
      4 C          63.2207   90.8469   10.2143 C.3     1  UNL1        0.0261
      5 C          63.8632   92.1875   10.4139 C.2     1  UNL1       -0.0278
      6 C          64.6186   92.4766   11.6771 C.2     1  UNL1        0.0066
      7 C          64.7314   91.4251   12.7408 C.3     1  UNL1        0.2048
      8 C          65.4067   91.4207   14.0802 C.2     1  UNL1        0.3456
      9 O          66.1727   92.5597   14.6851 O.2     1  UNL1       -0.2471
     10 O          65.1815   90.0773   14.7085 O.3     1  UNL1       -0.4503
     11 C          64.3671   89.2515   13.7574 C.3     1  UNL1        0.1746
     12 C          63.7267   87.9005   13.5704 C.3     1  UNL1        0.0815
     13 C          62.9435   87.4686   12.3662 C.3     1  UNL1        0.1804
     14 O          63.1401   86.5212   13.5124 O.3     1  UNL1       -0.3763
     15 C          62.3569   86.0893   12.3082 C.2     1  UNL1        0.3415
     16 O          62.5534   85.1419   13.4543 O.2     1  UNL1       -0.2475
     17 O          61.5737   85.6574   11.1040 O.3     1  UNL1       -0.4460
     18 C          61.3771   86.6048    9.9578 C.3     1  UNL1        0.1944
     19 C          61.9637   87.9842   10.0158 C.3     1  UNL1        0.0512
     20 C          62.7469   88.4160   11.2200 C.3     1  UNL1        0.0369
     21 C          62.5503   89.3635   10.0738 C.3     1  UNL1        0.0030
     22 H          63.6646   86.9545   14.2037 H       1  UNL1        0.2109
     23 C          60.5938   86.1729    8.7536 C.ar    1  UNL1        0.0580
     24 C          61.0582   85.2147    7.6970 C.ar    1  UNL1        0.0430
     25 C          59.9602   85.0730    6.6850 C.ar    1  UNL1        0.1795
     26 O          58.8172   85.9436    7.1161 O.2     1  UNL1       -0.4475
     27 C          59.2089   86.6233    8.3946 C.ar    1  UNL1        0.1789
     28 O          65.4228   92.7124   13.0797 O.3     1  UNL1       -0.3183
     29 C          66.0741   93.5214   11.9975 C.3     1  UNL1        0.2663
     30 O          65.4260   94.7840   11.5118 O.3     1  UNL1       -0.3260
     31 C          66.0774   95.5930   10.4295 C.3     1  UNL1        0.1761
     32 C          67.3767   95.1394    9.8329 C.3     1  UNL1        0.1694
     33 O          68.0280   95.9484    8.7507 O.3     1  UNL1       -0.3794
     34 C          68.0248   93.8769   10.3186 C.3     1  UNL1        0.1715
     35 O          69.3241   93.4233    9.7220 O.3     1  UNL1       -0.3794
     36 C          67.3735   93.0678   11.4009 C.3     1  UNL1        0.1964
     37 O          68.0216   91.8053   11.8865 O.3     1  UNL1       -0.3775
     38 H          67.4829   96.7269    8.5564 H       1  UNL1        0.2105
     39 H          69.6031   92.5964   10.1453 H       1  UNL1        0.2105
     40 H          67.4746   91.4080   12.5822 H       1  UNL1        0.2106
     41 C          65.4292   96.8556    9.9439 C.3     1  UNL1        0.1693
     42 O          64.5283   96.8229    8.7449 O.3     1  UNL1       -0.3794
     43 H          65.0462   96.5929    7.9575 H       1  UNL1        0.2105
@<TRIPOS>BOND
     1     2     1    1
     2     2     3    1
     3     3     4    1
     4     4     5    1
     5     5     6    2
     6     6     7    1
     7     7    28    1
     8    29    28    1
     9    29    30    1
    10    30    31    1
    11    31    41    1
    12    41    42    1
    13    31    32    1
    14    32    33    1
    15    32    34    1
    16    34    35    1
    17    34    36    1
    18    36    37    1
    19     7     8    1
    20     8     9    2
    21     8    10    1
    22    10    11    1
    23    11    12    1
    24    12    13    1
    25    13    14    1
    26    13    15    1
    27    15    16    2
    28    15    17    1
    29    17    18    1
    30    18    23    1
    31    23    24   ar
    32    24    25   ar
    33    25    26   ar
    34    26    27   ar
    35    18    19    1
    36    19    20    1
    37    20    21    1
    38     7     2    1
    39    36    29    1
    40    20    13    1
    41    11     2    1
    42    27    23   ar
    43    20     3    1
    44    42    43    1
    45    33    38    1
    46    35    39    1
    47    37    40    1
    48    14    22    1
@<TRIPOS>MOLECULE
*****
 43 48 0 0 0
SMALL
GASTEIGER

@<TRIPOS>ATOM
      1 C          63.9082   90.7328   11.6363 C.3     1  UNL1        0.0069
      2 C          63.1868   89.4211   11.7317 C.3     1  UNL1        0.0738
      3 C          64.1327   89.6810   12.8664 C.3     1  UNL1        0.0136
      4 C          64.2865   88.6678   13.9617 C.3     1  UNL1        0.0261
      5 C          63.4945   87.3946   13.9222 C.2     1  UNL1       -0.0278
      6 C          62.5486   87.1347   12.7874 C.2     1  UNL1        0.0066
      7 C          62.3948   88.1479   11.6922 C.3     1  UNL1        0.2048
      8 C          61.5462   88.1681   10.4555 C.2     1  UNL1        0.3456
      9 O          60.5967   87.0916   10.0201 O.2     1  UNL1       -0.2471
     10 O          61.8138   89.4538    9.7306 O.3     1  UNL1       -0.4503
     11 C          62.8277   90.2282   10.5193 C.3     1  UNL1        0.1746
     12 C          63.6169   91.5114   10.5461 C.3     1  UNL1        0.0815
     13 C          64.5961   91.9080   11.6109 C.3     1  UNL1        0.1804
     14 O          64.3382   92.8231   10.4508 O.3     1  UNL1       -0.3763
     15 C          65.3175   93.2197   11.5156 C.2     1  UNL1        0.3415
     16 O          65.0596   94.1348   10.3555 O.2     1  UNL1       -0.2475
     17 O          66.2967   93.6162   12.5805 O.3     1  UNL1       -0.4460
     18 C          66.5546   92.7011   13.7406 C.3     1  UNL1        0.1944
     19 C          65.8333   91.3893   13.8360 C.3     1  UNL1        0.0512
     20 C          64.8540   90.9928   12.7711 C.3     1  UNL1        0.0369
     21 C          65.1119   90.0776   13.9313 C.3     1  UNL1        0.0030
     22 H          63.6841   92.4191    9.8594 H       1  UNL1        0.2109
     23 C          67.5338   93.0976   14.8055 C.ar    1  UNL1        0.0580
     24 C          68.3709   92.1617   15.6262 C.ar    1  UNL1        0.0430
     25 C          69.2023   92.9853   16.5645 C.ar    1  UNL1        0.1795
     26 O          68.8791   94.4301   16.3237 O.2     1  UNL1       -0.4475
     27 C          67.8479   94.4995   15.2366 C.ar    1  UNL1        0.1789
     28 O          61.5407   86.9271   11.5183 O.3     1  UNL1       -0.3183
     29 C          62.1163   85.5662   11.7762 C.3     1  UNL1        0.2663
     30 O          61.9770   84.9374   13.1309 O.3     1  UNL1       -0.3260
     31 C          62.5527   83.5764   13.3888 C.3     1  UNL1        0.1761
     32 C          63.2675   82.8442   12.2920 C.3     1  UNL1        0.1694
     33 O          63.8431   81.4833   12.5499 O.3     1  UNL1       -0.3794
     34 C          63.4067   83.4730   10.9374 C.3     1  UNL1        0.1715
     35 O          64.1215   82.7409    9.8405 O.3     1  UNL1       -0.3794
     36 C          62.8311   84.8340   10.6794 C.3     1  UNL1        0.1964
     37 O          62.9703   85.4627    9.3247 O.3     1  UNL1       -0.3775
     38 H          63.6665   81.2263   13.4684 H       1  UNL1        0.2105
     39 H          64.1220   83.2834    9.0365 H       1  UNL1        0.2105
     40 H          62.5461   86.3350    9.3280 H       1  UNL1        0.2106
     41 C          62.4134   82.9477   14.7436 C.3     1  UNL1        0.1693
     42 O          62.1020   81.4851   14.8632 O.3     1  UNL1       -0.3794
     43 H          61.2139   81.3139   14.5126 H       1  UNL1        0.2105
@<TRIPOS>BOND
     1     2     1    1
     2     2     3    1
     3     3     4    1
     4     4     5    1
     5     5     6    2
     6     6     7    1
     7     7    28    1
     8    29    28    1
     9    29    30    1
    10    30    31    1
    11    31    41    1
    12    41    42    1
    13    31    32    1
    14    32    33    1
    15    32    34    1
    16    34    35    1
    17    34    36    1
    18    36    37    1
    19     7     8    1
    20     8     9    2
    21     8    10    1
    22    10    11    1
    23    11    12    1
    24    12    13    1
    25    13    14    1
    26    13    15    1
    27    15    16    2
    28    15    17    1
    29    17    18    1
    30    18    23    1
    31    23    24   ar
    32    24    25   ar
    33    25    26   ar
    34    26    27   ar
    35    18    19    1
    36    19    20    1
    37    20    21    1
    38     7     2    1
    39    36    29    1
    40    20    13    1
    41    11     2    1
    42    27    23   ar
    43    20     3    1
    44    42    43    1
    45    33    38    1
    46    35    39    1
    47    37    40    1
    48    14    22    1
@<TRIPOS>MOLECULE
*****
 43 48 0 0 0
SMALL
GASTEIGER

@<TRIPOS>ATOM
      1 C          63.7004   86.0342   13.8776 C.3     1  UNL1        0.0069
      2 C          63.4554   87.4147   13.3443 C.3     1  UNL1        0.0738
      3 C          63.1413   86.3193   12.3689 C.3     1  UNL1        0.0136
      4 C          62.6309   86.6578   10.9997 C.3     1  UNL1        0.0261
      5 C          62.4346   88.0917   10.6058 C.2     1  UNL1       -0.0278
      6 C          62.7486   89.1872   11.5812 C.2     1  UNL1        0.0066
      7 C          63.2590   88.8487   12.9505 C.3     1  UNL1        0.2048
      8 C          63.6511   89.7073   14.1162 C.2     1  UNL1        0.3456
      9 O          63.6114   91.2062   14.1599 O.2     1  UNL1       -0.2471
     10 O          64.0897   88.8041   15.2305 O.3     1  UNL1       -0.4503
     11 C          63.9688   87.3871   14.7535 C.3     1  UNL1        0.1746
     12 C          64.1708   85.9512   15.1627 C.3     1  UNL1        0.0815
     13 C          63.9011   84.7547   14.2990 C.3     1  UNL1        0.1804
     14 O          64.4158   84.5707   15.6959 O.3     1  UNL1       -0.3763
     15 C          64.1461   83.3743   14.8322 C.2     1  UNL1        0.3415
     16 O          64.6608   83.1902   16.2290 O.2     1  UNL1       -0.2475
     17 O          63.8764   82.1779   13.9686 O.3     1  UNL1       -0.4460
     18 C          63.3617   82.3619   12.5718 C.3     1  UNL1        0.1944
     19 C          63.1167   83.7424   12.0385 C.3     1  UNL1        0.0512
     20 C          63.3864   84.9388   12.9022 C.3     1  UNL1        0.0369
     21 C          62.8716   85.1228   11.5053 C.3     1  UNL1        0.0030
     22 H          64.5355   85.4381   16.1133 H       1  UNL1        0.2109
     23 C          63.0920   81.1655   11.7081 C.ar    1  UNL1        0.0580
     24 C          63.1934   81.1170   10.2123 C.ar    1  UNL1        0.0430
     25 C          62.8376   79.7291    9.7683 C.ar    1  UNL1        0.1795
     26 O          62.5164   78.9198   10.9898 O.2     1  UNL1       -0.4475
     27 C          62.6737   79.8075   12.1886 C.ar    1  UNL1        0.1789
     28 O          63.1135   90.3205   12.7003 O.3     1  UNL1       -0.3183
     29 C          64.3112   91.1380   12.3165 C.3     1  UNL1        0.2663
     30 O          65.5228   91.1541   13.2007 O.3     1  UNL1       -0.3260
     31 C          66.7205   91.9716   12.8169 C.3     1  UNL1        0.1761
     32 C          66.7066   92.7730   11.5490 C.3     1  UNL1        0.1694
     33 O          67.9042   93.5905   11.1653 O.3     1  UNL1       -0.3794
     34 C          65.4950   92.7569   10.6649 C.3     1  UNL1        0.1715
     35 O          65.4810   93.5583    9.3970 O.3     1  UNL1       -0.3794
     36 C          64.2973   91.9394   11.0486 C.3     1  UNL1        0.1964
     37 O          63.0857   91.9233   10.1645 O.3     1  UNL1       -0.3775
     38 H          68.5938   93.4903   11.8401 H       1  UNL1        0.2105
     39 H          64.6300   93.4376    8.9476 H       1  UNL1        0.2105
     40 H          62.4079   91.3499   10.5553 H       1  UNL1        0.2106
     41 C          67.9321   91.9877   13.7012 C.3     1  UNL1        0.1693
     42 O          69.2872   91.7086   13.1216 O.3     1  UNL1       -0.3794
     43 H          69.3238   90.7898   12.8127 H       1  UNL1        0.2105
@<TRIPOS>BOND
     1     2     1    1
     2     2     3    1
     3     3     4    1
     4     4     5    1
     5     5     6    2
     6     6     7    1
     7     7    28    1
     8    29    28    1
     9    29    30    1
    10    30    31    1
    11    31    41    1
    12    41    42    1
    13    31    32    1
    14    32    33    1
    15    32    34    1
    16    34    35    1
    17    34    36    1
    18    36    37    1
    19     7     8    1
    20     8     9    2
    21     8    10    1
    22    10    11    1
    23    11    12    1
    24    12    13    1
    25    13    14    1
    26    13    15    1
    27    15    16    2
    28    15    17    1
    29    17    18    1
    30    18    23    1
    31    23    24   ar
    32    24    25   ar
    33    25    26   ar
    34    26    27   ar
    35    18    19    1
    36    19    20    1
    37    20    21    1
    38     7     2    1
    39    36    29    1
    40    20    13    1
    41    11     2    1
    42    27    23   ar
    43    20     3    1
    44    42    43    1
    45    33    38    1
    46    35    39    1
    47    37    40    1
    48    14    22    1
@<TRIPOS>MOLECULE
*****
 43 48 0 0 0
SMALL
GASTEIGER

@<TRIPOS>ATOM
      1 C          62.5823   87.6895   10.8599 C.3     1  UNL1        0.0069
      2 C          63.0663   88.9787   11.4547 C.3     1  UNL1        0.0738
      3 C          63.2423   87.7892   12.3513 C.3     1  UNL1        0.0136
      4 C          63.8570   87.9578   13.7091 C.3     1  UNL1        0.0261
      5 C          64.2957   89.3161   14.1703 C.2     1  UNL1       -0.0278
      6 C          64.1197   90.5056   13.2736 C.2     1  UNL1        0.0066
      7 C          63.5050   90.3370   11.9158 C.3     1  UNL1        0.2048
      8 C          63.2064   91.3172   10.8204 C.2     1  UNL1        0.3456
      9 O          63.4826   92.7911   10.8568 O.2     1  UNL1       -0.2471
     10 O          62.5832   90.5648    9.6822 O.3     1  UNL1       -0.4503
     11 C          62.4966   89.1195   10.0742 C.3     1  UNL1        0.1746
     12 C          62.0514   87.7612    9.5979 C.3     1  UNL1        0.0815
     13 C          62.1628   86.4859   10.3798 C.3     1  UNL1        0.1804
     14 O          61.5674   86.4720    9.0032 O.3     1  UNL1       -0.3763
     15 C          61.6788   85.1968    9.7851 C.2     1  UNL1        0.3415
     16 O          61.0834   85.1827    8.4085 O.2     1  UNL1       -0.2475
     17 O          61.7903   83.9215   10.5671 O.3     1  UNL1       -0.4460
     18 C          62.3857   83.9355   11.9437 C.3     1  UNL1        0.1944
     19 C          62.8698   85.2248   12.5385 C.3     1  UNL1        0.0512
     20 C          62.7583   86.4999   11.7565 C.3     1  UNL1        0.0369
     21 C          63.3538   86.5139   13.1332 C.3     1  UNL1        0.0030
     22 H          61.5702   87.3716    8.6405 H       1  UNL1        0.2109
     23 C          62.4972   82.6603   12.7257 C.ar    1  UNL1        0.0580
     24 C          62.7373   81.2941   12.1547 C.ar    1  UNL1        0.0430
     25 C          62.7766   80.3168   13.2920 C.ar    1  UNL1        0.1795
     26 O          62.5609   81.0790   14.5658 O.2     1  UNL1       -0.4475
     27 C          62.3882   82.5274   14.2158 C.ar    1  UNL1        0.1789
     28 O          63.8936   91.7494   12.2384 O.3     1  UNL1       -0.3183
     29 C          65.2310   92.0374   12.8534 C.3     1  UNL1        0.2663
     30 O          65.3406   92.2840   14.3289 O.3     1  UNL1       -0.3260
     31 C          66.6781   92.5720   14.9439 C.3     1  UNL1        0.1761
     32 C          67.9060   92.6136   14.0833 C.3     1  UNL1        0.1694
     33 O          69.2434   92.9017   14.6983 O.3     1  UNL1       -0.3794
     34 C          67.7964   92.3671   12.6079 C.3     1  UNL1        0.1715
     35 O          69.0243   92.4087   11.7473 O.3     1  UNL1       -0.3794
     36 C          66.4590   92.0790   11.9928 C.3     1  UNL1        0.1964
     37 O          66.3494   91.8325   10.5173 O.3     1  UNL1       -0.3775
     38 H          69.1381   93.0359   15.6532 H       1  UNL1        0.2105
     39 H          68.7796   92.2294   10.8259 H       1  UNL1        0.2105
     40 H          65.4228   91.6633   10.2857 H       1  UNL1        0.2106
     41 C          66.7876   92.8185   16.4195 C.3     1  UNL1        0.1693
     42 O          65.5526   92.8350   17.2707 O.3     1  UNL1       -0.3794
     43 H          64.9976   93.5902   17.0206 H       1  UNL1        0.2105
@<TRIPOS>BOND
     1     2     1    1
     2     2     3    1
     3     3     4    1
     4     4     5    1
     5     5     6    2
     6     6     7    1
     7     7    28    1
     8    29    28    1
     9    29    30    1
    10    30    31    1
    11    31    41    1
    12    41    42    1
    13    31    32    1
    14    32    33    1
    15    32    34    1
    16    34    35    1
    17    34    36    1
    18    36    37    1
    19     7     8    1
    20     8     9    2
    21     8    10    1
    22    10    11    1
    23    11    12    1
    24    12    13    1
    25    13    14    1
    26    13    15    1
    27    15    16    2
    28    15    17    1
    29    17    18    1
    30    18    23    1
    31    23    24   ar
    32    24    25   ar
    33    25    26   ar
    34    26    27   ar
    35    18    19    1
    36    19    20    1
    37    20    21    1
    38     7     2    1
    39    36    29    1
    40    20    13    1
    41    11     2    1
    42    27    23   ar
    43    20     3    1
    44    42    43    1
    45    33    38    1
    46    35    39    1
    47    37    40    1
    48    14    22    1
