@<TRIPOS>MOLECULE
*****
 34 38 0 0 0
SMALL
GASTEIGER

@<TRIPOS>ATOM
      1 C          62.9057   89.5189   12.4507 C.2     1  UNL1        0.2463
      2 O          62.4104   90.9185   12.2370 O.2     1  UNL1       -0.2730
      3 N          62.3405   88.3912   11.6391 N.am    1  UNL1       -0.2781
      4 C          61.2799   88.6631   10.6137 C.3     1  UNL1        0.0935
      5 C          60.7147   87.5354    9.8020 C.3     1  UNL1        0.0219
      6 C          61.2099   86.1358   10.0157 C.3     1  UNL1        0.0078
      7 C          62.2704   85.8638   11.0411 C.3     1  UNL1        0.0419
      8 C          62.8357   86.9915   11.8528 C.3     1  UNL1        0.0953
      9 C          62.7657   84.4641   11.2547 C.ar    1  UNL1       -0.0209
     10 C          64.0318   84.0073   10.5927 C.ar    1  UNL1       -0.0042
     11 C          64.5271   82.6077   10.8064 C.ar    1  UNL1       -0.0003
     12 C          63.7562   81.6648   11.6821 C.ar    1  UNL1       -0.0000
     13 C          62.4901   82.1217   12.3441 C.ar    1  UNL1       -0.0003
     14 C          61.9949   83.5213   12.1304 C.ar    1  UNL1       -0.0042
     15 C          63.9663   89.2469   13.4761 C.3     1  UNL1        0.1835
     16 C          68.9978   93.5850   15.2408 C.3     1  UNL1        0.0308
     17 C          67.7761   92.7267   15.0965 C.ar    1  UNL1       -0.0227
     18 C          66.6992   92.7734   16.1396 C.ar    1  UNL1        0.0336
     19 C          65.4775   91.9151   15.9953 C.ar    1  UNL1        0.1525
     20 C          65.3327   91.0102   14.8078 C.ar    1  UNL1        0.0882
     21 C          66.4096   90.9635   13.7648 C.ar    1  UNL1        0.0134
     22 C          67.6313   91.8217   13.9091 C.ar    1  UNL1       -0.0244
     23 C          68.7083   91.7750   12.8659 C.3     1  UNL1        0.0307
     24 N          64.1111   90.1519   14.6635 N.am    1  UNL1       -0.2439
     25 C          63.0342   90.1986   15.7066 C.2     1  UNL1        0.2744
     26 O          61.8125   89.3403   15.5622 O.2     1  UNL1       -0.2705
     27 C          63.1789   91.1036   16.8941 C.3     1  UNL1        0.2900
     28 O          64.4006   91.9619   17.0384 O.3     1  UNL1       -0.4643
     29 C          63.8962   86.7195   12.8781 C.3     1  UNL1        0.0924
     30 N          63.6970   85.6333   13.8932 N.3     1  UNL1       -0.2713
     31 C          64.6738   84.5434   14.2214 C.3     1  UNL1        0.0722
     32 C          64.0666   83.6828   15.2894 C.3     1  UNL1        0.0188
     33 C          62.7144   84.2409   15.6213 C.3     1  UNL1        0.0188
     34 C          62.4860   85.4464   14.7583 C.3     1  UNL1        0.0722
@<TRIPOS>BOND
     1    16    17    1
     2    17    18   ar
     3    18    19   ar
     4    19    20   ar
     5    20    21   ar
     6    21    22   ar
     7    22    23    1
     8    20    24    1
     9    24    15    1
    10    15     1    1
    11     1     2    2
    12     1     3   am
    13     3     4    1
    14     4     5    1
    15     5     6    1
    16     6     7    1
    17     7     9    1
    18     9    10   ar
    19    10    11   ar
    20    11    12   ar
    21    12    13   ar
    22    13    14   ar
    23     7     8    1
    24     8    29    1
    25    29    30    1
    26    30    31    1
    27    31    32    1
    28    32    33    1
    29    33    34    1
    30    24    25   am
    31    25    26    2
    32    25    27    1
    33    27    28    1
    34    22    17   ar
    35     8     3    1
    36    34    30    1
    37    28    19    1
    38    14     9   ar
@<TRIPOS>MOLECULE
*****
 34 38 0 0 0
SMALL
GASTEIGER

@<TRIPOS>ATOM
      1 C          63.7129   89.8330   15.0237 C.2     1  UNL1        0.2463
      2 O          63.5631   91.1340   15.7551 O.2     1  UNL1       -0.2730
      3 N          63.4485   88.5385   15.7339 N.am    1  UNL1       -0.2781
      4 C          63.0342   88.5450   17.1756 C.3     1  UNL1        0.0935
      5 C          62.7697   87.2506   17.8858 C.3     1  UNL1        0.0219
      6 C          62.9195   85.9496   17.1544 C.3     1  UNL1        0.0078
      7 C          63.3338   85.9430   15.7127 C.3     1  UNL1        0.0419
      8 C          63.5983   87.2375   15.0025 C.3     1  UNL1        0.0953
      9 C          63.4836   84.6421   14.9813 C.ar    1  UNL1       -0.0209
     10 C          62.3326   83.6826   14.9141 C.ar    1  UNL1       -0.0042
     11 C          62.4824   82.3816   14.1827 C.ar    1  UNL1       -0.0003
     12 C          63.7833   82.0401   13.5185 C.ar    1  UNL1       -0.0000
     13 C          64.9343   82.9995   13.5857 C.ar    1  UNL1       -0.0003
     14 C          64.7845   84.3005   14.3172 C.ar    1  UNL1       -0.0042
     15 C          64.1272   89.8265   13.5820 C.3     1  UNL1        0.1835
     16 C          68.8690   94.3395   15.6792 C.3     1  UNL1        0.0308
     17 C          67.8109   93.5256   14.9950 C.ar    1  UNL1       -0.0227
     18 C          67.2625   93.9691   13.6713 C.ar    1  UNL1        0.0336
     19 C          66.2045   93.1553   12.9871 C.ar    1  UNL1        0.1525
     20 C          65.6949   91.8978   13.6266 C.ar    1  UNL1        0.0882
     21 C          66.2433   91.4543   14.9504 C.ar    1  UNL1        0.0134
     22 C          67.3013   92.2682   15.6346 C.ar    1  UNL1       -0.0244
     23 C          67.8498   91.8246   16.9585 C.3     1  UNL1        0.0307
     24 N          64.6368   91.0839   12.9424 N.am    1  UNL1       -0.2439
     25 C          64.0884   91.5275   11.6186 C.2     1  UNL1        0.2744
     26 O          63.0303   90.7136   10.9344 O.2     1  UNL1       -0.2705
     27 C          64.5980   92.7850   10.9790 C.3     1  UNL1        0.2900
     28 O          65.6560   93.5989   11.6632 O.3     1  UNL1       -0.4643
     29 C          64.0126   87.2310   13.5609 C.3     1  UNL1        0.0924
     30 N          63.0100   86.9050   12.4938 N.3     1  UNL1       -0.2713
     31 C          62.7109   85.5383   11.9529 C.3     1  UNL1        0.0722
     32 C          61.6465   85.6772   10.9051 C.3     1  UNL1        0.0188
     33 C          61.2877   87.1297   10.7986 C.3     1  UNL1        0.0188
     34 C          62.1303   87.8886   11.7804 C.3     1  UNL1        0.0722
@<TRIPOS>BOND
     1    16    17    1
     2    17    18   ar
     3    18    19   ar
     4    19    20   ar
     5    20    21   ar
     6    21    22   ar
     7    22    23    1
     8    20    24    1
     9    24    15    1
    10    15     1    1
    11     1     2    2
    12     1     3   am
    13     3     4    1
    14     4     5    1
    15     5     6    1
    16     6     7    1
    17     7     9    1
    18     9    10   ar
    19    10    11   ar
    20    11    12   ar
    21    12    13   ar
    22    13    14   ar
    23     7     8    1
    24     8    29    1
    25    29    30    1
    26    30    31    1
    27    31    32    1
    28    32    33    1
    29    33    34    1
    30    24    25   am
    31    25    26    2
    32    25    27    1
    33    27    28    1
    34    22    17   ar
    35     8     3    1
    36    34    30    1
    37    28    19    1
    38    14     9   ar
@<TRIPOS>MOLECULE
*****
 34 38 0 0 0
SMALL
GASTEIGER

@<TRIPOS>ATOM
      1 C          64.2698   87.6663   14.1676 C.2     1  UNL1        0.2463
      2 O          65.0298   87.2842   15.4031 O.2     1  UNL1       -0.2730
      3 N          63.6264   86.6054   13.3248 N.am    1  UNL1       -0.2781
      4 C          63.7428   85.1624   13.7174 C.3     1  UNL1        0.0935
      5 C          63.0994   84.1015   12.8745 C.3     1  UNL1        0.0219
      6 C          62.3395   84.4836   11.6390 C.3     1  UNL1        0.0078
      7 C          62.2230   85.9266   11.2463 C.3     1  UNL1        0.0419
      8 C          62.8664   86.9875   12.0892 C.3     1  UNL1        0.0953
      9 C          61.4630   86.3087   10.0108 C.ar    1  UNL1       -0.0209
     10 C          60.1480   87.0206   10.1293 C.ar    1  UNL1       -0.0042
     11 C          59.3881   87.4028    8.8938 C.ar    1  UNL1       -0.0003
     12 C          59.9432   87.0729    7.5398 C.ar    1  UNL1       -0.0000
     13 C          61.2581   86.3610    7.4214 C.ar    1  UNL1       -0.0003
     14 C          62.0180   85.9789    8.6569 C.ar    1  UNL1       -0.0042
     15 C          64.1534   89.1094   13.7750 C.3     1  UNL1        0.1835
     16 C          69.0495   93.7241   15.1825 C.3     1  UNL1        0.0308
     17 C          67.8426   92.8380   15.0928 C.ar    1  UNL1       -0.0227
     18 C          66.7039   93.0224   16.0516 C.ar    1  UNL1        0.0336
     19 C          65.4969   92.1363   15.9619 C.ar    1  UNL1        0.1525
     20 C          65.4286   91.0659   14.9133 C.ar    1  UNL1        0.0882
     21 C          66.5673   90.8815   13.9545 C.ar    1  UNL1        0.0134
     22 C          67.7743   91.7676   14.0442 C.ar    1  UNL1       -0.0244
     23 C          68.9130   91.5833   13.0853 C.3     1  UNL1        0.0307
     24 N          64.2217   90.1798   14.8236 N.am    1  UNL1       -0.2439
     25 C          63.0830   90.3641   15.7824 C.2     1  UNL1        0.2744
     26 O          61.8760   89.4780   15.6926 O.2     1  UNL1       -0.2705
     27 C          63.1512   91.4345   16.8310 C.3     1  UNL1        0.2900
     28 O          64.3582   92.3206   16.9208 O.3     1  UNL1       -0.4643
     29 C          62.7500   88.4305   11.6966 C.3     1  UNL1        0.0924
     30 N          61.4182   89.1183   11.7541 N.3     1  UNL1       -0.2713
     31 C          60.9755   90.2569   10.8837 C.3     1  UNL1        0.0722
     32 C          59.5790   90.6305   11.2838 C.3     1  UNL1        0.0188
     33 C          59.1585   89.7229   12.4016 C.3     1  UNL1        0.0188
     34 C          60.2952   88.7883   12.6922 C.3     1  UNL1        0.0722
@<TRIPOS>BOND
     1    16    17    1
     2    17    18   ar
     3    18    19   ar
     4    19    20   ar
     5    20    21   ar
     6    21    22   ar
     7    22    23    1
     8    20    24    1
     9    24    15    1
    10    15     1    1
    11     1     2    2
    12     1     3   am
    13     3     4    1
    14     4     5    1
    15     5     6    1
    16     6     7    1
    17     7     9    1
    18     9    10   ar
    19    10    11   ar
    20    11    12   ar
    21    12    13   ar
    22    13    14   ar
    23     7     8    1
    24     8    29    1
    25    29    30    1
    26    30    31    1
    27    31    32    1
    28    32    33    1
    29    33    34    1
    30    24    25   am
    31    25    26    2
    32    25    27    1
    33    27    28    1
    34    22    17   ar
    35     8     3    1
    36    34    30    1
    37    28    19    1
    38    14     9   ar
@<TRIPOS>MOLECULE
*****
 34 38 0 0 0
SMALL
GASTEIGER

@<TRIPOS>ATOM
      1 C          63.9314   87.9751   13.7592 C.2     1  UNL1        0.2463
      2 O          64.7184   87.7467   15.0156 O.2     1  UNL1       -0.2730
      3 N          63.4107   86.8058   12.9773 N.am    1  UNL1       -0.2781
      4 C          63.6771   85.4079   13.4517 C.3     1  UNL1        0.0935
      5 C          63.1565   84.2385   12.6698 C.3     1  UNL1        0.0219
      6 C          62.3694   84.4669   11.4134 C.3     1  UNL1        0.0078
      7 C          62.1031   85.8648   10.9390 C.3     1  UNL1        0.0419
      8 C          62.6237   87.0342   11.7210 C.3     1  UNL1        0.0953
      9 C          61.3160   86.0932    9.6827 C.ar    1  UNL1       -0.0209
     10 C          61.8127   85.5471    8.3768 C.ar    1  UNL1       -0.0042
     11 C          61.0256   85.7755    7.1205 C.ar    1  UNL1       -0.0003
     12 C          59.7420   86.5501    7.1700 C.ar    1  UNL1       -0.0000
     13 C          59.2454   87.0961    8.4758 C.ar    1  UNL1       -0.0003
     14 C          60.0325   86.8677    9.7321 C.ar    1  UNL1       -0.0042
     15 C          63.6650   89.3731   13.2848 C.3     1  UNL1        0.1835
     16 C          67.0966   94.9272   11.1342 C.3     1  UNL1        0.0308
     17 C          66.3769   93.8308   11.8621 C.ar    1  UNL1       -0.0227
     18 C          66.2100   93.9027   13.3511 C.ar    1  UNL1        0.0336
     19 C          65.4903   92.8063   14.0790 C.ar    1  UNL1        0.1525
     20 C          64.9375   91.6379   13.3180 C.ar    1  UNL1        0.0882
     21 C          65.1044   91.5659   11.8290 C.ar    1  UNL1        0.0134
     22 C          65.8241   92.6624   11.1011 C.ar    1  UNL1       -0.0244
     23 C          65.9910   92.5904    9.6121 C.3     1  UNL1        0.0307
     24 N          64.2178   90.5414   14.0459 N.am    1  UNL1       -0.2439
     25 C          64.0509   90.6134   15.5348 C.2     1  UNL1        0.2744
     26 O          63.3312   89.5170   16.2627 O.2     1  UNL1       -0.2705
     27 C          64.6038   91.7819   16.2959 C.3     1  UNL1        0.2900
     28 O          65.3235   92.8783   15.5680 O.3     1  UNL1       -0.4643
     29 C          62.3573   88.4320   11.2466 C.3     1  UNL1        0.0924
     30 N          61.0396   89.0855   11.5406 N.3     1  UNL1       -0.2713
     31 C          59.9576   88.5320   12.4197 C.3     1  UNL1        0.0722
     32 C          58.8217   89.5116   12.4295 C.3     1  UNL1        0.0188
     33 C          59.2017   90.6707   11.5565 C.3     1  UNL1        0.0188
     34 C          60.5724   90.4073   11.0071 C.3     1  UNL1        0.0722
@<TRIPOS>BOND
     1    16    17    1
     2    17    18   ar
     3    18    19   ar
     4    19    20   ar
     5    20    21   ar
     6    21    22   ar
     7    22    23    1
     8    20    24    1
     9    24    15    1
    10    15     1    1
    11     1     2    2
    12     1     3   am
    13     3     4    1
    14     4     5    1
    15     5     6    1
    16     6     7    1
    17     7     9    1
    18     9    10   ar
    19    10    11   ar
    20    11    12   ar
    21    12    13   ar
    22    13    14   ar
    23     7     8    1
    24     8    29    1
    25    29    30    1
    26    30    31    1
    27    31    32    1
    28    32    33    1
    29    33    34    1
    30    24    25   am
    31    25    26    2
    32    25    27    1
    33    27    28    1
    34    22    17   ar
    35     8     3    1
    36    34    30    1
    37    28    19    1
    38    14     9   ar
@<TRIPOS>MOLECULE
*****
 34 38 0 0 0
SMALL
GASTEIGER

@<TRIPOS>ATOM
      1 C          63.7978   89.1531   13.5735 C.2     1  UNL1        0.2463
      2 O          64.5976   89.2493   14.8389 O.2     1  UNL1       -0.2730
      3 N          63.4734   87.8092   12.9917 N.am    1  UNL1       -0.2781
      4 C          63.9488   86.5614   13.6752 C.3     1  UNL1        0.0935
      5 C          63.6244   85.2174   13.0934 C.3     1  UNL1        0.0219
      6 C          62.8247   85.1212   11.8280 C.3     1  UNL1        0.0078
      7 C          62.3493   86.3689   11.1445 C.3     1  UNL1        0.0419
      8 C          62.6737   87.7129   11.7264 C.3     1  UNL1        0.0953
      9 C          61.5495   86.2726    9.8792 C.ar    1  UNL1       -0.0209
     10 C          60.1622   86.8404    9.8238 C.ar    1  UNL1       -0.0042
     11 C          59.3624   86.7442    8.5585 C.ar    1  UNL1       -0.0003
     12 C          59.9499   86.0802    7.3485 C.ar    1  UNL1       -0.0000
     13 C          61.3372   85.5124    7.4039 C.ar    1  UNL1       -0.0003
     14 C          62.1370   85.6086    8.6693 C.ar    1  UNL1       -0.0042
     15 C          63.3224   90.4009   12.8900 C.3     1  UNL1        0.1835
     16 C          68.2823   94.0566   15.9372 C.3     1  UNL1        0.0308
     17 C          67.2908   93.3852   15.0338 C.ar    1  UNL1       -0.0227
     18 C          67.2934   93.6838   13.5638 C.ar    1  UNL1        0.0336
     19 C          66.3019   93.0123   12.6604 C.ar    1  UNL1        0.1525
     20 C          65.3079   92.0423   13.2269 C.ar    1  UNL1        0.0882
     21 C          65.3054   91.7438   14.6969 C.ar    1  UNL1        0.0134
     22 C          66.2968   92.4152   15.6003 C.ar    1  UNL1       -0.0244
     23 C          66.2942   92.1166   17.0703 C.3     1  UNL1        0.0307
     24 N          64.3165   91.3709   12.3235 N.am    1  UNL1       -0.2439
     25 C          64.3190   91.6694   10.8535 C.2     1  UNL1        0.2744
     26 O          63.3276   90.9980    9.9501 O.2     1  UNL1       -0.2705
     27 C          65.3131   92.6395   10.2869 C.3     1  UNL1        0.2900
     28 O          66.3045   93.3109   11.1904 O.3     1  UNL1       -0.4643
     29 C          62.1983   88.9606   11.0428 C.3     1  UNL1        0.0924
     30 N          60.8591   89.5413   11.3884 N.3     1  UNL1       -0.2713
     31 C          59.8894   88.9869   12.3895 C.3     1  UNL1        0.0722
     32 C          58.6855   89.8814   12.4134 C.3     1  UNL1        0.0188
     33 C          58.9112   90.9887   11.4270 C.3     1  UNL1        0.0188
     34 C          60.2546   90.7785   10.7936 C.3     1  UNL1        0.0722
@<TRIPOS>BOND
     1    16    17    1
     2    17    18   ar
     3    18    19   ar
     4    19    20   ar
     5    20    21   ar
     6    21    22   ar
     7    22    23    1
     8    20    24    1
     9    24    15    1
    10    15     1    1
    11     1     2    2
    12     1     3   am
    13     3     4    1
    14     4     5    1
    15     5     6    1
    16     6     7    1
    17     7     9    1
    18     9    10   ar
    19    10    11   ar
    20    11    12   ar
    21    12    13   ar
    22    13    14   ar
    23     7     8    1
    24     8    29    1
    25    29    30    1
    26    30    31    1
    27    31    32    1
    28    32    33    1
    29    33    34    1
    30    24    25   am
    31    25    26    2
    32    25    27    1
    33    27    28    1
    34    22    17   ar
    35     8     3    1
    36    34    30    1
    37    28    19    1
    38    14     9   ar
@<TRIPOS>MOLECULE
*****
 34 38 0 0 0
SMALL
GASTEIGER

@<TRIPOS>ATOM
      1 C          63.9281   88.8814   15.3462 C.2     1  UNL1        0.2463
      2 O          63.7882   90.1996   16.0481 O.2     1  UNL1       -0.2730
      3 N          63.4370   87.6258   16.0036 N.am    1  UNL1       -0.2781
      4 C          62.8060   87.6884   17.3630 C.3     1  UNL1        0.0935
      5 C          62.3149   86.4328   18.0204 C.3     1  UNL1        0.0219
      6 C          62.4548   85.1146   17.3185 C.3     1  UNL1        0.0078
      7 C          63.0858   85.0519   15.9592 C.3     1  UNL1        0.0419
      8 C          63.5769   86.3076   15.3017 C.3     1  UNL1        0.0953
      9 C          63.2257   83.7337   15.2573 C.ar    1  UNL1       -0.0209
     10 C          62.0044   83.0029   14.7835 C.ar    1  UNL1       -0.0042
     11 C          62.1443   81.6847   14.0816 C.ar    1  UNL1       -0.0003
     12 C          63.5055   81.0972   13.8534 C.ar    1  UNL1       -0.0000
     13 C          64.7268   81.8280   14.3272 C.ar    1  UNL1       -0.0003
     14 C          64.5869   83.1462   15.0291 C.ar    1  UNL1       -0.0042
     15 C          64.5592   88.8188   13.9868 C.3     1  UNL1        0.1835
     16 C          60.3015   89.7170    8.6656 C.3     1  UNL1        0.0308
     17 C          61.3275   89.7798    9.7580 C.ar    1  UNL1       -0.0227
     18 C          62.2001   90.9917    9.8986 C.ar    1  UNL1        0.0336
     19 C          63.2262   91.0544   10.9910 C.ar    1  UNL1        0.1525
     20 C          63.3797   89.9052   11.9427 C.ar    1  UNL1        0.0882
     21 C          62.5071   88.6933   11.8021 C.ar    1  UNL1        0.0134
     22 C          61.4810   88.6306   10.7097 C.ar    1  UNL1       -0.0244
     23 C          60.6084   87.4186   10.5691 C.3     1  UNL1        0.0307
     24 N          64.4057   89.9680   13.0350 N.am    1  UNL1       -0.2439
     25 C          65.2784   91.1799   13.1757 C.2     1  UNL1        0.2744
     26 O          66.3044   91.2426   14.2680 O.2     1  UNL1       -0.2705
     27 C          65.1249   92.3291   12.2239 C.3     1  UNL1        0.2900
     28 O          64.0989   92.2664   11.1316 O.3     1  UNL1       -0.4643
     29 C          64.2080   86.2449   13.9423 C.3     1  UNL1        0.0924
     30 N          63.6125   85.3710   12.8786 N.3     1  UNL1       -0.2713
     31 C          62.1883   85.4002   12.4086 C.3     1  UNL1        0.0722
     32 C          62.0322   84.3616   11.3375 C.3     1  UNL1        0.0188
     33 C          63.3599   83.6906   11.1456 C.3     1  UNL1        0.0188
     34 C          64.3366   84.3144   12.0980 C.3     1  UNL1        0.0722
@<TRIPOS>BOND
     1    16    17    1
     2    17    18   ar
     3    18    19   ar
     4    19    20   ar
     5    20    21   ar
     6    21    22   ar
     7    22    23    1
     8    20    24    1
     9    24    15    1
    10    15     1    1
    11     1     2    2
    12     1     3   am
    13     3     4    1
    14     4     5    1
    15     5     6    1
    16     6     7    1
    17     7     9    1
    18     9    10   ar
    19    10    11   ar
    20    11    12   ar
    21    12    13   ar
    22    13    14   ar
    23     7     8    1
    24     8    29    1
    25    29    30    1
    26    30    31    1
    27    31    32    1
    28    32    33    1
    29    33    34    1
    30    24    25   am
    31    25    26    2
    32    25    27    1
    33    27    28    1
    34    22    17   ar
    35     8     3    1
    36    34    30    1
    37    28    19    1
    38    14     9   ar
@<TRIPOS>MOLECULE
*****
 34 38 0 0 0
SMALL
GASTEIGER

@<TRIPOS>ATOM
      1 C          58.8404   95.4888   -2.4870 C.2     1  UNL1        0.2463
      2 O          57.7758   96.4230   -2.9809 O.2     1  UNL1       -0.2730
      3 N          59.3776   95.6331   -1.0940 N.am    1  UNL1       -0.2781
      4 C          58.8501   96.7117   -0.1947 C.3     1  UNL1        0.0935
      5 C          59.3872   96.8560    1.1983 C.3     1  UNL1        0.0219
      6 C          60.4518   95.9218    1.6922 C.3     1  UNL1        0.0078
      7 C          60.9793   94.8433    0.7930 C.3     1  UNL1        0.0419
      8 C          60.4422   94.6989   -0.6001 C.3     1  UNL1        0.0953
      9 C          62.0439   93.9091    1.2869 C.ar    1  UNL1       -0.0209
     10 C          61.6660   92.6944    2.0818 C.ar    1  UNL1       -0.0042
     11 C          62.7306   91.7602    2.5757 C.ar    1  UNL1       -0.0003
     12 C          64.1731   92.0407    2.2747 C.ar    1  UNL1       -0.0000
     13 C          64.5509   93.2553    1.4799 C.ar    1  UNL1       -0.0003
     14 C          63.4863   94.1895    0.9860 C.ar    1  UNL1       -0.0042
     15 C          59.3679   94.4102   -3.3863 C.3     1  UNL1        0.1835
     16 C          54.5318   90.2325   -5.9177 C.3     1  UNL1        0.0308
     17 C          55.6057   91.2402   -5.6327 C.ar    1  UNL1       -0.0227
     18 C          56.1395   92.1007   -6.7393 C.ar    1  UNL1        0.0336
     19 C          57.2134   93.1084   -6.4543 C.ar    1  UNL1        0.1525
     20 C          57.7537   93.2555   -5.0628 C.ar    1  UNL1        0.0882
     21 C          57.2200   92.3949   -3.9562 C.ar    1  UNL1        0.0134
     22 C          56.1460   91.3873   -4.2412 C.ar    1  UNL1       -0.0244
     23 C          55.6123   90.5267   -3.1345 C.3     1  UNL1        0.0307
     24 N          58.8277   94.2631   -4.7778 N.am    1  UNL1       -0.2439
     25 C          59.3614   95.1237   -5.8844 C.2     1  UNL1        0.2744
     26 O          60.4354   96.1313   -5.5994 O.2     1  UNL1       -0.2705
     27 C          58.8211   94.9766   -7.2760 C.3     1  UNL1        0.2900
     28 O          57.7472   93.9690   -7.5610 O.3     1  UNL1       -0.4643
     29 C          60.9696   93.6204   -1.4993 C.3     1  UNL1        0.0924
     30 N          62.2398   93.8384   -2.2668 N.3     1  UNL1       -0.2713
     31 C          62.9900   92.7977   -3.0440 C.3     1  UNL1        0.0722
     32 C          64.1967   93.4515   -3.6495 C.3     1  UNL1        0.0188
     33 C          64.1921   94.8964   -3.2465 C.3     1  UNL1        0.0188
     34 C          62.9827   95.1355   -2.3920 C.3     1  UNL1        0.0722
@<TRIPOS>BOND
     1    16    17    1
     2    17    18   ar
     3    18    19   ar
     4    19    20   ar
     5    20    21   ar
     6    21    22   ar
     7    22    23    1
     8    20    24    1
     9    24    15    1
    10    15     1    1
    11     1     2    2
    12     1     3   am
    13     3     4    1
    14     4     5    1
    15     5     6    1
    16     6     7    1
    17     7     9    1
    18     9    10   ar
    19    10    11   ar
    20    11    12   ar
    21    12    13   ar
    22    13    14   ar
    23     7     8    1
    24     8    29    1
    25    29    30    1
    26    30    31    1
    27    31    32    1
    28    32    33    1
    29    33    34    1
    30    24    25   am
    31    25    26    2
    32    25    27    1
    33    27    28    1
    34    22    17   ar
    35     8     3    1
    36    34    30    1
    37    28    19    1
    38    14     9   ar
@<TRIPOS>MOLECULE
*****
 34 38 0 0 0
SMALL
GASTEIGER

@<TRIPOS>ATOM
      1 C          63.8289   88.8812   15.1160 C.2     1  UNL1        0.2463
      2 O          63.6712   90.2145   15.7847 O.2     1  UNL1       -0.2730
      3 N          63.3848   87.6325   15.8185 N.am    1  UNL1       -0.2781
      4 C          62.7828   87.7172   17.1899 C.3     1  UNL1        0.0935
      5 C          62.3386   86.4686   17.8924 C.3     1  UNL1        0.0219
      6 C          62.4964   85.1352   17.2236 C.3     1  UNL1        0.0078
      7 C          63.0983   85.0505   15.8523 C.3     1  UNL1        0.0419
      8 C          63.5425   86.2991   15.1497 C.3     1  UNL1        0.0953
      9 C          63.2561   83.7171   15.1836 C.ar    1  UNL1       -0.0209
     10 C          62.0444   82.9550   14.7351 C.ar    1  UNL1       -0.0042
     11 C          62.2022   81.6216   14.0663 C.ar    1  UNL1       -0.0003
     12 C          63.5716   81.0504   13.8461 C.ar    1  UNL1       -0.0000
     13 C          64.7832   81.8125   14.2946 C.ar    1  UNL1       -0.0003
     14 C          64.6254   83.1459   14.9633 C.ar    1  UNL1       -0.0042
     15 C          64.4309   88.7965   13.7446 C.3     1  UNL1        0.1835
     16 C          66.6637   95.0293   11.8963 C.3     1  UNL1        0.0308
     17 C          65.9891   93.7033   12.0879 C.ar    1  UNL1       -0.0227
     18 C          64.8493   93.3061   11.1975 C.ar    1  UNL1        0.0336
     19 C          64.1748   91.9800   11.3890 C.ar    1  UNL1        0.1525
     20 C          64.6401   91.0513   12.4710 C.ar    1  UNL1        0.0882
     21 C          65.7800   91.4485   13.3615 C.ar    1  UNL1        0.0134
     22 C          66.4545   92.7745   13.1699 C.ar    1  UNL1       -0.0244
     23 C          67.5944   93.1717   14.0604 C.3     1  UNL1        0.0307
     24 N          63.9656   89.7252   12.6626 N.am    1  UNL1       -0.2439
     25 C          62.8257   89.3280   11.7722 C.2     1  UNL1        0.2744
     26 O          62.1512   88.0020   11.9638 O.2     1  UNL1       -0.2705
     27 C          62.3603   90.2568   10.6901 C.3     1  UNL1        0.2900
     28 O          63.0348   91.5828   10.4986 O.3     1  UNL1       -0.4643
     29 C          64.1445   86.2144   13.7785 C.3     1  UNL1        0.0924
     30 N          63.5139   85.3402   12.7353 N.3     1  UNL1       -0.2713
     31 C          62.0950   85.4227   12.2560 C.3     1  UNL1        0.0722
     32 C          61.8957   84.3635   11.2128 C.3     1  UNL1        0.0188
     33 C          63.1915   83.6263   11.0473 C.3     1  UNL1        0.0188
     34 C          64.1916   84.2299   11.9883 C.3     1  UNL1        0.0722
@<TRIPOS>BOND
     1    16    17    1
     2    17    18   ar
     3    18    19   ar
     4    19    20   ar
     5    20    21   ar
     6    21    22   ar
     7    22    23    1
     8    20    24    1
     9    24    15    1
    10    15     1    1
    11     1     2    2
    12     1     3   am
    13     3     4    1
    14     4     5    1
    15     5     6    1
    16     6     7    1
    17     7     9    1
    18     9    10   ar
    19    10    11   ar
    20    11    12   ar
    21    12    13   ar
    22    13    14   ar
    23     7     8    1
    24     8    29    1
    25    29    30    1
    26    30    31    1
    27    31    32    1
    28    32    33    1
    29    33    34    1
    30    24    25   am
    31    25    26    2
    32    25    27    1
    33    27    28    1
    34    22    17   ar
    35     8     3    1
    36    34    30    1
    37    28    19    1
    38    14     9   ar
@<TRIPOS>MOLECULE
*****
 34 38 0 0 0
SMALL
GASTEIGER

@<TRIPOS>ATOM
      1 C          62.9238   90.2274   13.8174 C.2     1  UNL1        0.2463
      2 O          61.5241   89.7704   14.1037 O.2     1  UNL1       -0.2730
      3 N          63.7331   90.8857   14.8952 N.am    1  UNL1       -0.2781
      4 C          63.1426   91.0871   16.2593 C.3     1  UNL1        0.0935
      5 C          63.9519   91.7454   17.3371 C.3     1  UNL1        0.0219
      6 C          65.3516   92.2024   17.0508 C.3     1  UNL1        0.0078
      7 C          65.9421   92.0010   15.6867 C.3     1  UNL1        0.0419
      8 C          65.1328   91.3426   14.6088 C.3     1  UNL1        0.0953
      9 C          67.3418   92.4579   15.4004 C.ar    1  UNL1       -0.0209
     10 C          68.2111   91.6709   14.4649 C.ar    1  UNL1       -0.0042
     11 C          69.6108   92.1279   14.1786 C.ar    1  UNL1       -0.0003
     12 C          70.1413   93.3718   14.8278 C.ar    1  UNL1       -0.0000
     13 C          69.2720   94.1587   15.7632 C.ar    1  UNL1       -0.0003
     14 C          67.8723   93.7018   16.0495 C.ar    1  UNL1       -0.0042
     15 C          63.5142   90.0260   12.4532 C.3     1  UNL1        0.1835
     16 C          62.6319   83.2177   12.1089 C.3     1  UNL1        0.0308
     17 C          62.6735   84.7078   11.9427 C.ar    1  UNL1       -0.0227
     18 C          61.9992   85.3504   10.7669 C.ar    1  UNL1        0.0336
     19 C          62.0408   86.8406   10.6007 C.ar    1  UNL1        0.1525
     20 C          62.7567   87.6882   11.6101 C.ar    1  UNL1        0.0882
     21 C          63.4310   87.0456   12.7858 C.ar    1  UNL1        0.0134
     22 C          63.3894   85.5554   12.9521 C.ar    1  UNL1       -0.0244
     23 C          64.0638   84.9129   14.1279 C.3     1  UNL1        0.0307
     24 N          62.7983   89.1784   11.4438 N.am    1  UNL1       -0.2439
     25 C          62.1240   89.8209   10.2681 C.2     1  UNL1        0.2744
     26 O          62.1656   91.3111   10.1018 O.2     1  UNL1       -0.2705
     27 C          61.4080   88.9733    9.2586 C.3     1  UNL1        0.2900
     28 O          61.3664   87.4832    9.4249 O.3     1  UNL1       -0.4643
     29 C          65.7232   91.1413   13.2448 C.3     1  UNL1        0.0924
     30 N          65.8252   92.2966   12.2936 N.3     1  UNL1       -0.2713
     31 C          66.1442   93.7156   12.6609 C.3     1  UNL1        0.0722
     32 C          66.1423   94.5318   11.4025 C.3     1  UNL1        0.0188
     33 C          65.8221   93.6174   10.2574 C.3     1  UNL1        0.0188
     34 C          65.6261   92.2360   10.8081 C.3     1  UNL1        0.0722
@<TRIPOS>BOND
     1    16    17    1
     2    17    18   ar
     3    18    19   ar
     4    19    20   ar
     5    20    21   ar
     6    21    22   ar
     7    22    23    1
     8    20    24    1
     9    24    15    1
    10    15     1    1
    11     1     2    2
    12     1     3   am
    13     3     4    1
    14     4     5    1
    15     5     6    1
    16     6     7    1
    17     7     9    1
    18     9    10   ar
    19    10    11   ar
    20    11    12   ar
    21    12    13   ar
    22    13    14   ar
    23     7     8    1
    24     8    29    1
    25    29    30    1
    26    30    31    1
    27    31    32    1
    28    32    33    1
    29    33    34    1
    30    24    25   am
    31    25    26    2
    32    25    27    1
    33    27    28    1
    34    22    17   ar
    35     8     3    1
    36    34    30    1
    37    28    19    1
    38    14     9   ar
