@<TRIPOS>MOLECULE
*****
 38 42 0 0 0
SMALL
GASTEIGER

@<TRIPOS>ATOM
      1 C          60.7160   87.4467    9.8394 C.ar    1  UNL1        0.0502
      2 C          59.8363   86.9647    8.7242 C.ar    1  UNL1        0.0143
      3 C          59.5920   87.8392    7.5303 C.ar    1  UNL1       -0.0030
      4 C          60.2274   89.1957    7.4516 C.ar    1  UNL1       -0.0223
      5 C          61.1070   89.6777    8.5668 C.ar    1  UNL1       -0.0034
      6 C          61.3514   88.8032    9.7607 C.ar    1  UNL1        0.0089
      7 C          59.9830   90.0702    6.2575 C.3     1  UNL1        0.0257
      8 C          61.1377   90.7223    5.5566 C.3     1  UNL1        0.0259
      9 C          60.8934   91.5967    4.3625 C.3     1  UNL1        0.0940
     10 N          59.4943   91.8191    3.8695 N.am    1  UNL1       -0.2760
     11 C          59.2499   92.6935    2.6756 C.2     1  UNL1        0.2505
     12 O          57.8508   92.9159    2.1825 O.2     1  UNL1       -0.2699
     13 C          58.3395   91.1670    4.5705 C.3     1  UNL1        0.0940
     14 C          58.5839   90.2925    5.7645 C.3     1  UNL1        0.0259
     15 C          60.4046   93.3456    1.9746 C.ar    1  UNL1        0.0727
     16 C          61.2792   92.5396    1.0606 C.ar    1  UNL1        0.0077
     17 C          62.4340   93.1918    0.3597 C.ar    1  UNL1        0.0208
     18 C          62.7141   94.6499    0.5727 C.ar    1  UNL1        0.0989
     19 N          61.8395   95.4559    1.4867 N.ar    1  UNL1       -0.2422
     20 C          60.6848   94.8038    2.1877 C.ar    1  UNL1        0.1034
     21 C          62.2311   89.2852   10.8760 C.2     1  UNL1       -0.0253
     22 C          62.7432   88.3158   11.8997 C.2     1  UNL1       -0.0303
     23 C          63.6229   88.7977   13.0150 C.3     1  UNL1        0.0257
     24 C          63.9905   90.2492   13.1066 C.3     1  UNL1        0.0050
     25 C          63.4783   91.2186   12.0829 C.3     1  UNL1        0.0050
     26 C          62.5986   90.7366   10.9676 C.3     1  UNL1        0.0261
     27 C          62.0065   85.4989   10.9755 C.2     1  UNL1        0.2837
     28 O          62.8084   85.3000    9.7234 O.2     1  UNL1       -0.2665
     29 N          60.9603   86.5722   11.0335 N.am    1  UNL1       -0.2779
     30 H          60.4340   86.7028   11.8552 H       1  UNL1        0.1553
     31 C          62.6436   82.6754   13.5614 C.ar    1  UNL1        0.1469
     32 C          62.6103   83.8820   14.4520 C.ar    1  UNL1        0.1282
     33 N          62.3676   85.0865   13.5917 N.ar    1  UNL1       -0.2205
     34 C          62.2509   84.6244   12.1694 C.ar    1  UNL1        0.1958
     35 N          62.4215   83.1343   12.1507 N.ar    1  UNL1       -0.3257
     36 H          62.3928   82.5585   11.3526 H       1  UNL1        0.1682
     37 N          63.0782   79.8420   14.4463 N.1     1  UNL1       -0.1893
     38 C          62.8609   81.2587   14.0039 C.1     1  UNL1        0.1194
@<TRIPOS>BOND
     1    37    38    3
     2    38    31    1
     3    31    32   ar
     4    32    33   ar
     5    33    34   ar
     6    34    27    1
     7    27    28    2
     8    27    29   am
     9    29     1    1
    10     1     2   ar
    11     2     3   ar
    12     3     4   ar
    13     4     7    1
    14     7     8    1
    15     8     9    1
    16     9    10    1
    17    10    11   am
    18    11    12    2
    19    11    15    1
    20    15    16   ar
    21    16    17   ar
    22    17    18   ar
    23    18    19   ar
    24    19    20   ar
    25    10    13    1
    26    13    14    1
    27     4     5   ar
    28     5     6   ar
    29     6    21    1
    30    21    22    2
    31    22    23    1
    32    23    24    1
    33    24    25    1
    34    25    26    1
    35    34    35   ar
    36    35    31   ar
    37     6     1   ar
    38    26    21    1
    39    14     7    1
    40    20    15   ar
    41    29    30    1
    42    35    36    1
@<TRIPOS>MOLECULE
*****
 38 42 0 0 0
SMALL
GASTEIGER

@<TRIPOS>ATOM
      1 C          59.0837   92.3038    3.3747 C.ar    1  UNL1        0.0502
      2 C          58.0018   91.6983    4.2188 C.ar    1  UNL1        0.0143
      3 C          58.3606   90.8535    5.4053 C.ar    1  UNL1       -0.0030
      4 C          59.8013   90.6143    5.7475 C.ar    1  UNL1       -0.0223
      5 C          60.8832   91.2199    4.9033 C.ar    1  UNL1       -0.0034
      6 C          60.5245   92.0646    3.7169 C.ar    1  UNL1        0.0089
      7 C          60.1601   89.7695    6.9340 C.3     1  UNL1        0.0257
      8 C          61.0563   90.3201    8.0033 C.3     1  UNL1        0.0259
      9 C          61.4151   89.4753    9.1897 C.3     1  UNL1        0.0940
     10 N          60.8775   88.0799    9.3068 N.am    1  UNL1       -0.2760
     11 C          61.2362   87.2350   10.4932 C.2     1  UNL1        0.2505
     12 O          60.6987   85.8396   10.6103 O.2     1  UNL1       -0.2699
     13 C          59.9812   87.5292    8.2374 C.3     1  UNL1        0.0940
     14 C          59.6225   88.3740    7.0510 C.3     1  UNL1        0.0259
     15 C          62.1325   87.7857   11.5625 C.ar    1  UNL1        0.0727
     16 C          62.2253   89.2679   11.7736 C.ar    1  UNL1        0.0077
     17 C          63.1216   89.8185   12.8429 C.ar    1  UNL1        0.0208
     18 C          63.9250   88.8870   13.7012 C.ar    1  UNL1        0.0989
     19 N          63.8322   87.4048   13.4902 N.ar    1  UNL1       -0.2422
     20 C          62.9360   86.8542   12.4209 C.ar    1  UNL1        0.1034
     21 C          61.6064   92.6702    2.8726 C.2     1  UNL1       -0.0253
     22 C          61.4324   94.0478    2.3052 C.2     1  UNL1       -0.0303
     23 C          62.5142   94.6534    1.4610 C.3     1  UNL1        0.0257
     24 C          63.7702   93.8814    1.1842 C.3     1  UNL1        0.0050
     25 C          63.9443   92.5039    1.7516 C.3     1  UNL1        0.0050
     26 C          62.8623   91.8983    2.5959 C.3     1  UNL1        0.0261
     27 C          59.0759   92.6867    0.8049 C.2     1  UNL1        0.2837
     28 O          59.7856   91.3798    0.6082 O.2     1  UNL1       -0.2665
     29 N          58.7250   93.1487    2.1882 N.am    1  UNL1       -0.2779
     30 H          58.2592   94.0063    2.3174 H       1  UNL1        0.1553
     31 C          57.4541   94.5979   -2.1585 C.ar    1  UNL1        0.1469
     32 C          58.8763   95.0648   -2.2561 C.ar    1  UNL1        0.1282
     33 N          59.6569   94.4056   -1.1579 N.ar    1  UNL1       -0.2205
     34 C          58.7172   93.5314   -0.3815 C.ar    1  UNL1        0.1958
     35 N          57.3558   93.6503   -0.9999 N.ar    1  UNL1       -0.3257
     36 H          56.5408   93.1875   -0.6983 H       1  UNL1        0.1682
     37 N          55.2017   95.4160   -3.9635 N.1     1  UNL1       -0.1893
     38 C          56.3279   95.0069   -3.0610 C.1     1  UNL1        0.1194
@<TRIPOS>BOND
     1    37    38    3
     2    38    31    1
     3    31    32   ar
     4    32    33   ar
     5    33    34   ar
     6    34    27    1
     7    27    28    2
     8    27    29   am
     9    29     1    1
    10     1     2   ar
    11     2     3   ar
    12     3     4   ar
    13     4     7    1
    14     7     8    1
    15     8     9    1
    16     9    10    1
    17    10    11   am
    18    11    12    2
    19    11    15    1
    20    15    16   ar
    21    16    17   ar
    22    17    18   ar
    23    18    19   ar
    24    19    20   ar
    25    10    13    1
    26    13    14    1
    27     4     5   ar
    28     5     6   ar
    29     6    21    1
    30    21    22    2
    31    22    23    1
    32    23    24    1
    33    24    25    1
    34    25    26    1
    35    34    35   ar
    36    35    31   ar
    37     6     1   ar
    38    26    21    1
    39    14     7    1
    40    20    15   ar
    41    29    30    1
    42    35    36    1
