@<TRIPOS>MOLECULE
*****
 33 37 0 0 0
SMALL
GASTEIGER

@<TRIPOS>ATOM
      1 C          63.0784   86.3640   12.7878 C.2     1  UNL1        0.2506
      2 O          63.7500   87.1692   13.8604 O.2     1  UNL1       -0.2699
      3 N          62.4033   87.0569   11.6415 N.am    1  UNL1       -0.2723
      4 C          61.7316   86.2516   10.5689 C.3     1  UNL1        0.1257
      5 C          61.0565   86.9446    9.4225 C.3     1  UNL1        0.1637
      6 O          61.0531   88.4428    9.3488 O.3     1  UNL1       -0.3502
      7 C          61.7247   89.2480   10.4214 C.3     1  UNL1        0.1622
      8 C          62.3998   88.5551   11.5678 C.3     1  UNL1        0.1096
      9 C          63.3675   81.7431   10.4290 C.3     1  UNL1        0.0307
     10 C          63.2264   82.5554   11.6821 C.ar    1  UNL1       -0.0255
     11 C          63.2229   84.0535   11.6084 C.ar    1  UNL1        0.0015
     12 C          63.0818   84.8658   12.8615 C.ar    1  UNL1        0.0726
     13 C          62.9441   84.1798   14.1884 C.ar    1  UNL1        0.1069
     14 C          62.9476   82.6817   14.2621 C.ar    1  UNL1        0.0165
     15 C          63.0887   81.8695   13.0090 C.ar    1  UNL1       -0.0242
     16 C          63.0921   80.3712   13.0827 C.3     1  UNL1        0.0307
     17 N          62.8030   84.9921   15.4415 N.ar    1  UNL1       -0.1477
     18 N          63.9255   85.6005   16.2290 N.ar    1  UNL1       -0.1447
     19 C          63.3309   86.3230   17.4013 C.ar    1  UNL1        0.1446
     20 C          61.8409   86.1612   17.3384 C.ar    1  UNL1        0.1446
     21 N          61.5147   85.3387   16.1272 N.ar    1  UNL1       -0.1447
     22 C          63.0715   89.3604   12.6404 C.3     1  UNL1        0.0487
     23 C          63.9533   90.5157   12.2697 C.ar    1  UNL1       -0.0203
     24 C          63.7577   91.2181   10.9588 C.ar    1  UNL1       -0.0042
     25 C          64.6395   92.3735   10.5881 C.ar    1  UNL1       -0.0002
     26 C          65.7170   92.8265   11.5282 C.ar    1  UNL1        0.0031
     27 C          65.9126   92.1241   12.8391 C.ar    1  UNL1        0.0388
     28 C          65.0307   90.9687   13.2098 C.ar    1  UNL1       -0.0011
     29 C          66.9901   92.5771   13.7793 C.ar    1  UNL1        0.2037
     30 N          66.7885   93.3801   15.0301 N.ar    1  UNL1       -0.1829
     31 C          68.1321   93.6059   15.6576 C.ar    1  UNL1        0.3164
     32 O          69.1641   92.9424   14.7945 O.2     1  UNL1       -0.3274
     33 N          68.4582   92.3066   13.6336 N.ar    1  UNL1       -0.0554
@<TRIPOS>BOND
     1     9    10    1
     2    10    11   ar
     3    11    12   ar
     4    12     1    1
     5     1     2    2
     6     1     3   am
     7     3     4    1
     8     4     5    1
     9     5     6    1
    10     6     7    1
    11     7     8    1
    12     8    22    1
    13    22    23    1
    14    23    24   ar
    15    24    25   ar
    16    25    26   ar
    17    26    27   ar
    18    27    29    1
    19    29    30   ar
    20    30    31   ar
    21    31    32   ar
    22    32    33   ar
    23    27    28   ar
    24    12    13   ar
    25    13    17    1
    26    17    18   ar
    27    18    19   ar
    28    19    20   ar
    29    20    21   ar
    30    13    14   ar
    31    14    15   ar
    32    15    16    1
    33    15    10   ar
    34     8     3    1
    35    28    23   ar
    36    21    17   ar
    37    33    29   ar
@<TRIPOS>MOLECULE
*****
 33 37 0 0 0
SMALL
GASTEIGER

@<TRIPOS>ATOM
      1 C          63.3551   86.9862   13.1340 C.2     1  UNL1        0.2506
      2 O          63.8765   87.6105   14.3943 O.2     1  UNL1       -0.2699
      3 N          62.8419   87.8544   12.0237 N.am    1  UNL1       -0.2723
      4 C          62.3205   87.2300   10.7633 C.3     1  UNL1        0.1257
      5 C          61.8073   88.0982    9.6529 C.3     1  UNL1        0.1637
      6 O          61.8154   89.5907    9.8029 O.3     1  UNL1       -0.3502
      7 C          62.3367   90.2150   11.0632 C.3     1  UNL1        0.1622
      8 C          62.8500   89.3468   12.1736 C.3     1  UNL1        0.1096
      9 C          63.7863   82.7621   10.1388 C.3     1  UNL1        0.0307
     10 C          63.5626   83.3817   11.4865 C.ar    1  UNL1       -0.0255
     11 C          63.5707   84.8742   11.6364 C.ar    1  UNL1        0.0015
     12 C          63.3470   85.4937   12.9840 C.ar    1  UNL1        0.0726
     13 C          63.1152   84.6209   14.1817 C.ar    1  UNL1        0.1069
     14 C          63.1071   83.1284   14.0317 C.ar    1  UNL1        0.0165
     15 C          63.3308   82.5089   12.6841 C.ar    1  UNL1       -0.0242
     16 C          63.3227   81.0163   12.5341 C.3     1  UNL1        0.0307
     17 N          62.8915   85.2405   15.5293 N.ar    1  UNL1       -0.1477
     18 N          61.5602   85.5095   16.1660 N.ar    1  UNL1       -0.1447
     19 C          61.8057   86.1352   17.5070 C.ar    1  UNL1        0.1446
     20 C          63.2887   86.2528   17.6991 C.ar    1  UNL1        0.1446
     21 N          63.9597   85.6999   16.4768 N.ar    1  UNL1       -0.1447
     22 C          63.3713   89.9712   13.4340 C.3     1  UNL1        0.0487
     23 C          64.6301   90.7862   13.4021 C.ar    1  UNL1       -0.0203
     24 C          65.6138   90.6913   14.5306 C.ar    1  UNL1       -0.0042
     25 C          66.8726   91.5063   14.4987 C.ar    1  UNL1       -0.0002
     26 C          67.1478   92.4163   13.3384 C.ar    1  UNL1        0.0031
     27 C          66.1642   92.5112   12.2099 C.ar    1  UNL1        0.0388
     28 C          64.9053   91.6961   12.2418 C.ar    1  UNL1       -0.0011
     29 C          66.4393   93.4211   11.0496 C.ar    1  UNL1        0.2037
     30 N          67.5704   93.2877   10.0734 N.ar    1  UNL1       -0.1829
     31 C          67.4618   94.4083    9.0823 C.ar    1  UNL1        0.3164
     32 O          66.2637   95.2343    9.4459 O.2     1  UNL1       -0.3274
     33 N          65.6318   94.6241   10.6618 N.ar    1  UNL1       -0.0554
@<TRIPOS>BOND
     1     9    10    1
     2    10    11   ar
     3    11    12   ar
     4    12     1    1
     5     1     2    2
     6     1     3   am
     7     3     4    1
     8     4     5    1
     9     5     6    1
    10     6     7    1
    11     7     8    1
    12     8    22    1
    13    22    23    1
    14    23    24   ar
    15    24    25   ar
    16    25    26   ar
    17    26    27   ar
    18    27    29    1
    19    29    30   ar
    20    30    31   ar
    21    31    32   ar
    22    32    33   ar
    23    27    28   ar
    24    12    13   ar
    25    13    17    1
    26    17    18   ar
    27    18    19   ar
    28    19    20   ar
    29    20    21   ar
    30    13    14   ar
    31    14    15   ar
    32    15    16    1
    33    15    10   ar
    34     8     3    1
    35    28    23   ar
    36    21    17   ar
    37    33    29   ar
@<TRIPOS>MOLECULE
*****
 33 37 0 0 0
SMALL
GASTEIGER

@<TRIPOS>ATOM
      1 C          63.4607   87.9873   13.2536 C.2     1  UNL1        0.2506
      2 O          63.7036   89.0402   12.2133 O.2     1  UNL1       -0.2699
      3 N          63.3843   88.3680   14.7025 N.am    1  UNL1       -0.2723
      4 C          63.1414   87.3150   15.7429 C.3     1  UNL1        0.1257
      5 C          63.0650   87.6957   17.1917 C.3     1  UNL1        0.1637
      6 O          63.2316   89.1294   17.6002 O.3     1  UNL1       -0.3502
      7 C          63.4745   90.1823   16.5599 C.3     1  UNL1        0.1622
      8 C          63.5509   89.8016   15.1111 C.3     1  UNL1        0.1096
      9 C          64.6148   82.9618   13.8961 C.3     1  UNL1        0.0307
     10 C          63.8712   84.0409   13.1664 C.ar    1  UNL1       -0.0255
     11 C          64.0378   85.4745   13.5749 C.ar    1  UNL1        0.0015
     12 C          63.2941   86.5536   12.8451 C.ar    1  UNL1        0.0726
     13 C          62.3839   86.1990   11.7068 C.ar    1  UNL1        0.1069
     14 C          62.2173   84.7654   11.2983 C.ar    1  UNL1        0.0165
     15 C          62.9609   83.6863   12.0281 C.ar    1  UNL1       -0.0242
     16 C          62.7943   82.2526   11.6196 C.3     1  UNL1        0.0307
     17 N          61.6402   87.2781   10.9770 N.ar    1  UNL1       -0.1477
     18 N          60.4677   88.0516   11.5034 N.ar    1  UNL1       -0.1447
     19 C          60.0413   89.0247   10.4445 C.ar    1  UNL1        0.1446
     20 C          60.9503   88.8526    9.2637 C.ar    1  UNL1        0.1446
     21 N          61.9384   87.7731    9.5929 N.ar    1  UNL1       -0.1447
     22 C          63.7938   90.8546   14.0707 C.3     1  UNL1        0.0487
     23 C          65.1867   91.3489   13.8148 C.ar    1  UNL1       -0.0203
     24 C          66.2282   91.2463   14.8895 C.ar    1  UNL1       -0.0042
     25 C          67.6210   91.7405   14.6336 C.ar    1  UNL1       -0.0002
     26 C          67.9725   92.3375   13.3031 C.ar    1  UNL1        0.0031
     27 C          66.9311   92.4401   12.2285 C.ar    1  UNL1        0.0388
     28 C          65.5381   91.9457   12.4844 C.ar    1  UNL1       -0.0011
     29 C          67.2825   93.0369   10.8980 C.ar    1  UNL1        0.2037
     30 N          67.1192   94.4757   10.5063 N.ar    1  UNL1       -0.1829
     31 C          67.5947   94.6278    9.0918 C.ar    1  UNL1        0.3164
     32 O          68.0519   93.2831    8.6093 O.2     1  UNL1       -0.3274
     33 N          67.8589   92.2999    9.7256 N.ar    1  UNL1       -0.0554
@<TRIPOS>BOND
     1     9    10    1
     2    10    11   ar
     3    11    12   ar
     4    12     1    1
     5     1     2    2
     6     1     3   am
     7     3     4    1
     8     4     5    1
     9     5     6    1
    10     6     7    1
    11     7     8    1
    12     8    22    1
    13    22    23    1
    14    23    24   ar
    15    24    25   ar
    16    25    26   ar
    17    26    27   ar
    18    27    29    1
    19    29    30   ar
    20    30    31   ar
    21    31    32   ar
    22    32    33   ar
    23    27    28   ar
    24    12    13   ar
    25    13    17    1
    26    17    18   ar
    27    18    19   ar
    28    19    20   ar
    29    20    21   ar
    30    13    14   ar
    31    14    15   ar
    32    15    16    1
    33    15    10   ar
    34     8     3    1
    35    28    23   ar
    36    21    17   ar
    37    33    29   ar
@<TRIPOS>MOLECULE
*****
 33 37 0 0 0
SMALL
GASTEIGER

@<TRIPOS>ATOM
      1 C          62.8445   88.9191   12.0031 C.2     1  UNL1        0.2506
      2 O          62.9149   87.6805   12.8462 O.2     1  UNL1       -0.2699
      3 N          61.8903   88.9868   10.8478 N.am    1  UNL1       -0.2723
      4 C          61.8199   90.2255   10.0047 C.3     1  UNL1        0.1257
      5 C          60.8656   90.2932    8.8493 C.3     1  UNL1        0.1637
      6 O          59.9817   89.1221    8.5371 O.3     1  UNL1       -0.3502
      7 C          60.0521   87.8835    9.3802 C.3     1  UNL1        0.1622
      8 C          61.0064   87.8158   10.5355 C.3     1  UNL1        0.1096
      9 C          65.3730   93.1872   10.4569 C.3     1  UNL1        0.0307
     10 C          64.9927   92.2241   11.5423 C.ar    1  UNL1       -0.0255
     11 C          64.1088   91.0532   11.2300 C.ar    1  UNL1        0.0015
     12 C          63.7284   90.0902   12.3153 C.ar    1  UNL1        0.0726
     13 C          64.2320   90.2982   13.7129 C.ar    1  UNL1        0.1069
     14 C          65.1159   91.4691   14.0252 C.ar    1  UNL1        0.0165
     15 C          65.4962   92.4321   12.9399 C.ar    1  UNL1       -0.0242
     16 C          66.3801   93.6032   13.2521 C.3     1  UNL1        0.0307
     17 N          63.8516   89.3351   14.7982 N.ar    1  UNL1       -0.1477
     18 N          64.3485   87.9270   14.9415 N.ar    1  UNL1       -0.1447
     19 C          63.7116   87.3327   16.1626 C.ar    1  UNL1        0.1446
     20 C          62.8211   88.3735   16.7740 C.ar    1  UNL1        0.1446
     21 N          62.9076   89.6110   15.9308 N.ar    1  UNL1       -0.1447
     22 C          61.0767   86.5771   11.3787 C.3     1  UNL1        0.0487
     23 C          61.9693   85.4425   10.9716 C.ar    1  UNL1       -0.0203
     24 C          62.6794   85.4834    9.6509 C.ar    1  UNL1       -0.0042
     25 C          63.5720   84.3488    9.2438 C.ar    1  UNL1       -0.0002
     26 C          63.7547   83.1732   10.1574 C.ar    1  UNL1        0.0031
     27 C          63.0446   83.1322   11.4781 C.ar    1  UNL1        0.0388
     28 C          62.1519   84.2670   11.8852 C.ar    1  UNL1       -0.0011
     29 C          63.2272   81.9567   12.3917 C.ar    1  UNL1        0.2037
     30 N          62.5088   80.6436   12.2932 N.ar    1  UNL1       -0.1829
     31 C          62.9978   79.7632   13.4048 C.ar    1  UNL1        0.3164
     32 O          64.0186   80.5322   14.1903 O.2     1  UNL1       -0.3274
     33 N          64.1603   81.8878   13.5641 N.ar    1  UNL1       -0.0554
@<TRIPOS>BOND
     1     9    10    1
     2    10    11   ar
     3    11    12   ar
     4    12     1    1
     5     1     2    2
     6     1     3   am
     7     3     4    1
     8     4     5    1
     9     5     6    1
    10     6     7    1
    11     7     8    1
    12     8    22    1
    13    22    23    1
    14    23    24   ar
    15    24    25   ar
    16    25    26   ar
    17    26    27   ar
    18    27    29    1
    19    29    30   ar
    20    30    31   ar
    21    31    32   ar
    22    32    33   ar
    23    27    28   ar
    24    12    13   ar
    25    13    17    1
    26    17    18   ar
    27    18    19   ar
    28    19    20   ar
    29    20    21   ar
    30    13    14   ar
    31    14    15   ar
    32    15    16    1
    33    15    10   ar
    34     8     3    1
    35    28    23   ar
    36    21    17   ar
    37    33    29   ar
@<TRIPOS>MOLECULE
*****
 33 37 0 0 0
SMALL
GASTEIGER

@<TRIPOS>ATOM
      1 C          62.3602   87.9666   11.1346 C.2     1  UNL1        0.2506
      2 O          63.4833   88.6399   10.4031 O.2     1  UNL1       -0.2699
      3 N          61.1018   88.7245   11.4382 N.am    1  UNL1       -0.2723
      4 C          59.9787   88.0511   12.1697 C.3     1  UNL1        0.1257
      5 C          58.7203   88.8090   12.4733 C.3     1  UNL1        0.1637
      6 O          58.5851   90.2403   12.0453 O.3     1  UNL1       -0.3502
      7 C          59.7083   90.9137   11.3138 C.3     1  UNL1        0.1622
      8 C          60.9666   90.1558   11.0102 C.3     1  UNL1        0.1096
      9 C          63.9647   84.4362   14.5933 C.3     1  UNL1        0.0307
     10 C          63.2976   84.7701   13.2919 C.ar    1  UNL1       -0.0255
     11 C          63.1624   86.2014   12.8639 C.ar    1  UNL1        0.0015
     12 C          62.4953   86.5353   11.5626 C.ar    1  UNL1        0.0726
     13 C          61.9634   85.4379   10.6892 C.ar    1  UNL1        0.1069
     14 C          62.0985   84.0066   11.1172 C.ar    1  UNL1        0.0165
     15 C          62.7656   83.6727   12.4185 C.ar    1  UNL1       -0.0242
     16 C          62.9008   82.2414   12.8465 C.3     1  UNL1        0.0307
     17 N          61.2963   85.7718    9.3879 N.ar    1  UNL1       -0.1477
     18 N          61.8190   85.4463    8.0201 N.ar    1  UNL1       -0.1447
     19 C          60.8352   85.9632    7.0127 C.ar    1  UNL1        0.1446
     20 C          59.7044   86.6082    7.7579 C.ar    1  UNL1        0.1446
     21 N          59.9894   86.4899    9.2258 N.ar    1  UNL1       -0.1447
     22 C          62.0898   90.8292   10.2787 C.3     1  UNL1        0.0487
     23 C          63.2820   91.3341   11.0360 C.ar    1  UNL1       -0.0203
     24 C          63.3879   91.0962   12.5132 C.ar    1  UNL1       -0.0042
     25 C          64.5801   91.6012   13.2706 C.ar    1  UNL1       -0.0002
     26 C          65.6665   92.3440   12.5507 C.ar    1  UNL1        0.0031
     27 C          65.5605   92.5819   11.0735 C.ar    1  UNL1        0.0388
     28 C          64.3682   92.0769   10.3162 C.ar    1  UNL1       -0.0011
     29 C          66.6468   93.3246   10.3536 C.ar    1  UNL1        0.2037
     30 N          66.4954   94.6357    9.6408 N.ar    1  UNL1       -0.1829
     31 C          67.8302   95.0082    9.0668 C.ar    1  UNL1        0.3164
     32 O          68.8066   93.9272    9.4249 O.2     1  UNL1       -0.3274
     33 N          68.0752   92.8868   10.2202 N.ar    1  UNL1       -0.0554
@<TRIPOS>BOND
     1     9    10    1
     2    10    11   ar
     3    11    12   ar
     4    12     1    1
     5     1     2    2
     6     1     3   am
     7     3     4    1
     8     4     5    1
     9     5     6    1
    10     6     7    1
    11     7     8    1
    12     8    22    1
    13    22    23    1
    14    23    24   ar
    15    24    25   ar
    16    25    26   ar
    17    26    27   ar
    18    27    29    1
    19    29    30   ar
    20    30    31   ar
    21    31    32   ar
    22    32    33   ar
    23    27    28   ar
    24    12    13   ar
    25    13    17    1
    26    17    18   ar
    27    18    19   ar
    28    19    20   ar
    29    20    21   ar
    30    13    14   ar
    31    14    15   ar
    32    15    16    1
    33    15    10   ar
    34     8     3    1
    35    28    23   ar
    36    21    17   ar
    37    33    29   ar
