@<TRIPOS>MOLECULE
*****
 41 44 0 0 0
SMALL
GASTEIGER

@<TRIPOS>ATOM
      1 C          64.9094   91.9909   11.4681 C.3     1  UNL1        0.1695
      2 C          65.6098   92.3681   12.7399 C.3     1  UNL1        0.1271
      3 N          65.2795   91.9615   14.1454 N.am    1  UNL1       -0.2553
      4 C          66.1805   92.5119   15.2109 C.2     1  UNL1        0.2294
      5 O          65.9379   92.1667   16.6504 O.2     1  UNL1       -0.2745
      6 C          64.1674   91.0773   14.6265 C.ar    1  UNL1        0.0676
      7 C          64.1935   90.9265   16.1186 C.ar    1  UNL1        0.0162
      8 C          63.1631   90.0798   16.8050 C.ar    1  UNL1        0.0014
      9 C          62.1065   89.3838   15.9992 C.ar    1  UNL1        0.0014
     10 C          62.0804   89.5345   14.5071 C.ar    1  UNL1        0.0162
     11 C          63.1108   90.3813   13.8207 C.ar    1  UNL1        0.0679
     12 N          62.9055   90.3976   12.3349 N.am    1  UNL1       -0.2517
     13 C          63.7059   91.1139   11.2879 C.2     1  UNL1        0.2493
     14 O          63.2414   90.9288    9.8737 O.2     1  UNL1       -0.2727
     15 C          66.4633   93.7051   10.2861 C.2     1  UNL1        0.2371
     16 O          66.8574   94.2674   11.6197 O.2     1  UNL1       -0.2737
     17 N          65.4893   92.5668   10.2103 N.am    1  UNL1       -0.2959
     18 H          65.2306   92.1977    9.3351 H       1  UNL1        0.1499
     19 C          67.0431   94.2810    9.0283 C.3     1  UNL1        0.1316
     20 C          66.5880   95.6240    8.5390 C.3     1  UNL1        0.0270
     21 C          68.8279   92.3960    8.9215 C.3     1  UNL1        0.0862
     22 N          68.0780   93.5140    8.2598 N.3     1  UNL1       -0.2902
     23 H          67.6058   93.1127    7.4496 H       1  UNL1        0.1237
     24 C          67.3243   93.4075   14.8369 C.3     1  UNL1        0.0856
     25 C          68.5562   93.4474   15.6918 C.3     1  UNL1        0.0091
     26 C          69.2087   94.7610   16.0060 C.3     1  UNL1        0.0005
     27 C          69.1355   92.1738   16.2325 C.3     1  UNL1        0.0005
     28 C          61.7464   89.5909   11.8292 C.3     1  UNL1        0.1278
     29 C          61.9867   88.2685   11.1630 C.ar    1  UNL1        0.0320
     30 C          61.5284   88.0453    9.7523 C.ar    1  UNL1        0.1363
     31 C          61.7687   86.7230    9.0861 C.ar    1  UNL1        0.0366
     32 C          62.4671   85.6240    9.8306 C.ar    1  UNL1        0.0031
     33 C          62.9254   85.8473   11.2414 C.ar    1  UNL1        0.0004
     34 C          63.6239   84.7483   11.9859 C.ar    1  UNL1        0.0067
     35 C          64.0821   84.9716   13.3966 C.ar    1  UNL1        0.0346
     36 BR         64.7806   83.8726   14.1411 Br      1  UNL1       -0.0490
     37 C          63.8418   86.2939   14.0628 C.ar    1  UNL1        0.0067
     38 C          63.1434   87.3928   13.3183 C.ar    1  UNL1        0.0003
     39 C          62.6852   87.1696   11.9076 C.ar    1  UNL1        0.0006
     40 O          60.8300   89.1443    9.0077 O.3     1  UNL1       -0.4717
     41 C          59.7903   89.1735    7.9269 C.3     1  UNL1        0.2525
@<TRIPOS>BOND
     1    21    22    1
     2    22    19    1
     3    19    20    1
     4    19    15    1
     5    15    16    2
     6    15    17   am
     7     1    17    1
     8     1     2    1
     9     2     3    1
    10     3     4   am
    11     4     5    2
    12     4    24    1
    13    24    25    1
    14    25    26    1
    15    25    27    1
    16     3     6    1
    17     6     7   ar
    18     7     8   ar
    19     8     9   ar
    20     9    10   ar
    21    10    11   ar
    22    11    12    1
    23    12    28    1
    24    28    29    1
    25    29    30   ar
    26    30    40    1
    27    40    41    1
    28    30    31   ar
    29    31    32   ar
    30    32    33   ar
    31    33    34   ar
    32    34    35   ar
    33    35    36    1
    34    35    37   ar
    35    37    38   ar
    36    38    39   ar
    37    12    13   am
    38    13    14    2
    39    13     1    1
    40    11     6   ar
    41    39    29   ar
    42    39    33   ar
    43    22    23    1
    44    17    18    1
@<TRIPOS>MOLECULE
*****
 41 44 0 0 0
SMALL
GASTEIGER

@<TRIPOS>ATOM
      1 C          65.0884   92.0463   11.6879 C.3     1  UNL1        0.1695
      2 C          65.8070   92.4756   12.9326 C.3     1  UNL1        0.1271
      3 N          65.4930   92.1333   14.3589 N.am    1  UNL1       -0.2553
      4 C          66.4104   92.7254   15.3874 C.2     1  UNL1        0.2294
      5 O          66.1847   92.4455   16.8437 O.2     1  UNL1       -0.2745
      6 C          64.3829   91.2772   14.8927 C.ar    1  UNL1        0.0676
      7 C          64.4276   91.1925   16.3896 C.ar    1  UNL1        0.0162
      8 C          63.4021   90.3825   17.1259 C.ar    1  UNL1        0.0014
      9 C          62.3318   89.6573   16.3652 C.ar    1  UNL1        0.0014
     10 C          62.2871   89.7421   14.8683 C.ar    1  UNL1        0.0162
     11 C          63.3126   90.5520   14.1321 C.ar    1  UNL1        0.0679
     12 N          63.0881   90.5038   12.6497 N.am    1  UNL1       -0.2517
     13 C          63.8783   91.1688   11.5619 C.2     1  UNL1        0.2493
     14 O          63.3947   90.9239   10.1634 O.2     1  UNL1       -0.2727
     15 C          66.4961   93.8046   10.3931 C.2     1  UNL1        0.2371
     16 O          66.7714   94.5298   11.6770 O.2     1  UNL1       -0.2737
     17 N          65.6547   92.5629   10.3985 N.am    1  UNL1       -0.2959
     18 H          65.4740   92.0870    9.5558 H       1  UNL1        0.1499
     19 C          67.0625   94.3212    9.1037 C.3     1  UNL1        0.1316
     20 C          66.6452   95.6661    8.5868 C.3     1  UNL1        0.0270
     21 C          68.8235   92.4127    9.0231 C.3     1  UNL1        0.0862
     22 N          68.0459   93.4929    8.3313 N.3     1  UNL1       -0.2902
     23 H          67.5253   93.0443    7.5776 H       1  UNL1        0.1237
     24 C          67.5535   93.5973   14.9596 C.3     1  UNL1        0.0856
     25 C          68.8237   93.6137   15.7573 C.3     1  UNL1        0.0091
     26 C          69.4504   92.3235   16.1961 C.3     1  UNL1        0.0005
     27 C          69.4672   94.9203   16.1162 C.3     1  UNL1        0.0005
     28 C          61.9186   89.6818   12.1951 C.3     1  UNL1        0.1278
     29 C          62.1339   88.2855   11.6910 C.ar    1  UNL1        0.0320
     30 C          63.0535   87.3563   12.4264 C.ar    1  UNL1        0.1363
     31 C          63.2689   85.9599   11.9224 C.ar    1  UNL1        0.0366
     32 C          62.5646   85.4929   10.6831 C.ar    1  UNL1        0.0031
     33 C          61.6450   86.4223    9.9477 C.ar    1  UNL1        0.0004
     34 C          60.9408   85.9553    8.7083 C.ar    1  UNL1        0.0067
     35 C          60.0212   86.8847    7.9731 C.ar    1  UNL1        0.0346
     36 BR         59.3169   86.4177    6.7337 Br      1  UNL1       -0.0490
     37 C          59.8058   88.2810    8.4770 C.ar    1  UNL1        0.0067
     38 C          60.5101   88.7479    9.7164 C.ar    1  UNL1        0.0003
     39 C          61.4297   87.8186   10.4517 C.ar    1  UNL1        0.0006
     40 O          63.7578   87.8231   13.6657 O.3     1  UNL1       -0.4717
     41 C          64.5298   87.1304   14.7493 C.3     1  UNL1        0.2525
@<TRIPOS>BOND
     1    21    22    1
     2    22    19    1
     3    19    20    1
     4    19    15    1
     5    15    16    2
     6    15    17   am
     7     1    17    1
     8     1     2    1
     9     2     3    1
    10     3     4   am
    11     4     5    2
    12     4    24    1
    13    24    25    1
    14    25    26    1
    15    25    27    1
    16     3     6    1
    17     6     7   ar
    18     7     8   ar
    19     8     9   ar
    20     9    10   ar
    21    10    11   ar
    22    11    12    1
    23    12    28    1
    24    28    29    1
    25    29    30   ar
    26    30    40    1
    27    40    41    1
    28    30    31   ar
    29    31    32   ar
    30    32    33   ar
    31    33    34   ar
    32    34    35   ar
    33    35    36    1
    34    35    37   ar
    35    37    38   ar
    36    38    39   ar
    37    12    13   am
    38    13    14    2
    39    13     1    1
    40    11     6   ar
    41    39    29   ar
    42    39    33   ar
    43    22    23    1
    44    17    18    1
@<TRIPOS>MOLECULE
*****
 41 44 0 0 0
SMALL
GASTEIGER

@<TRIPOS>ATOM
      1 C          62.6514   85.7885   12.7252 C.3     1  UNL1        0.1695
      2 C          61.8671   86.2650   11.5386 C.3     1  UNL1        0.1271
      3 N          61.8444   87.6314   10.9201 N.am    1  UNL1       -0.2553
      4 C          60.9471   87.7916    9.7288 C.2     1  UNL1        0.2294
      5 O          60.8508   89.1183    9.0354 O.2     1  UNL1       -0.2745
      6 C          62.6003   88.8587   11.3353 C.ar    1  UNL1        0.0676
      7 C          62.2882   90.0228   10.4423 C.ar    1  UNL1        0.0162
      8 C          62.9415   91.3509   10.6856 C.ar    1  UNL1        0.0014
      9 C          63.9068   91.5149   11.8219 C.ar    1  UNL1        0.0014
     10 C          64.2189   90.3509   12.7149 C.ar    1  UNL1        0.0162
     11 C          63.5656   89.0227   12.4716 C.ar    1  UNL1        0.0679
     12 N          64.0135   88.0000   13.4733 N.am    1  UNL1       -0.2517
     13 C          63.6066   86.5606   13.5862 C.2     1  UNL1        0.2493
     14 O          64.2385   85.7918   14.7085 O.2     1  UNL1       -0.2727
     15 C          62.9765   83.2635   12.2071 C.2     1  UNL1        0.2371
     16 O          63.6956   83.6162   10.9388 O.2     1  UNL1       -0.2737
     17 N          62.4544   84.3496   13.1003 N.am    1  UNL1       -0.2959
     18 H          61.9824   84.1181   13.9326 H       1  UNL1        0.1499
     19 C          62.7794   81.8245   12.5822 C.3     1  UNL1        0.1316
     20 C          63.0572   80.7434   11.5801 C.3     1  UNL1        0.0270
     21 C          60.9404   80.8739   14.1519 C.3     1  UNL1        0.0862
     22 N          62.3047   81.4667   13.9594 N.3     1  UNL1       -0.2902
     23 H          62.9735   80.7949   14.3361 H       1  UNL1        0.1237
     24 C          60.1461   86.6252    9.2309 C.3     1  UNL1        0.0856
     25 C          59.8999   86.4574    7.7607 C.3     1  UNL1        0.0091
     26 C          58.9258   87.3545    7.0562 C.3     1  UNL1        0.0005
     27 C          60.6278   85.3924    6.9952 C.3     1  UNL1        0.0005
     28 C          64.9984   88.4801   14.4977 C.3     1  UNL1        0.1278
     29 C          64.7166   89.7270   15.2826 C.ar    1  UNL1        0.0320
     30 C          63.4241   89.8659   16.0309 C.ar    1  UNL1        0.1363
     31 C          63.1422   91.1127   16.8159 C.ar    1  UNL1        0.0366
     32 C          64.1529   92.2205   16.8525 C.ar    1  UNL1        0.0031
     33 C          65.4455   92.0815   16.1041 C.ar    1  UNL1        0.0004
     34 C          66.4562   93.1893   16.1407 C.ar    1  UNL1        0.0067
     35 C          67.7487   93.0502   15.3924 C.ar    1  UNL1        0.0346
     36 BR         68.7594   94.1580   15.4290 Br      1  UNL1       -0.0490
     37 C          68.0306   91.8034   14.6074 C.ar    1  UNL1        0.0067
     38 C          67.0198   90.6957   14.5709 C.ar    1  UNL1        0.0003
     39 C          65.7274   90.8347   15.3192 C.ar    1  UNL1        0.0006
     40 O          62.4133   88.7582   15.9944 O.3     1  UNL1       -0.4717
     41 C          62.1677   87.5433   16.8392 C.3     1  UNL1        0.2525
@<TRIPOS>BOND
     1    21    22    1
     2    22    19    1
     3    19    20    1
     4    19    15    1
     5    15    16    2
     6    15    17   am
     7     1    17    1
     8     1     2    1
     9     2     3    1
    10     3     4   am
    11     4     5    2
    12     4    24    1
    13    24    25    1
    14    25    26    1
    15    25    27    1
    16     3     6    1
    17     6     7   ar
    18     7     8   ar
    19     8     9   ar
    20     9    10   ar
    21    10    11   ar
    22    11    12    1
    23    12    28    1
    24    28    29    1
    25    29    30   ar
    26    30    40    1
    27    40    41    1
    28    30    31   ar
    29    31    32   ar
    30    32    33   ar
    31    33    34   ar
    32    34    35   ar
    33    35    36    1
    34    35    37   ar
    35    37    38   ar
    36    38    39   ar
    37    12    13   am
    38    13    14    2
    39    13     1    1
    40    11     6   ar
    41    39    29   ar
    42    39    33   ar
    43    22    23    1
    44    17    18    1
@<TRIPOS>MOLECULE
*****
 41 44 0 0 0
SMALL
GASTEIGER

@<TRIPOS>ATOM
      1 C          62.9150   86.0972   11.3085 C.3     1  UNL1        0.1695
      2 C          63.2591   84.9340   12.1909 C.3     1  UNL1        0.1271
      3 N          63.4804   84.9190   13.6744 N.am    1  UNL1       -0.2553
      4 C          63.8140   83.5829   14.2691 C.2     1  UNL1        0.2294
      5 O          64.0544   83.4575   15.7445 O.2     1  UNL1       -0.2745
      6 C          63.4123   86.0632   14.6420 C.ar    1  UNL1        0.0676
      7 C          63.7015   85.6138   16.0435 C.ar    1  UNL1        0.0162
      8 C          63.6844   86.6064   17.1680 C.ar    1  UNL1        0.0014
      9 C          63.3782   88.0484   16.8909 C.ar    1  UNL1        0.0014
     10 C          63.0889   88.4978   15.4894 C.ar    1  UNL1        0.0162
     11 C          63.1060   87.5052   14.3649 C.ar    1  UNL1        0.0679
     12 N          62.7922   88.1591   13.0519 N.am    1  UNL1       -0.2517
     13 C          62.7072   87.5326   11.6917 C.2     1  UNL1        0.2493
     14 O          62.3698   88.4644   10.5658 O.2     1  UNL1       -0.2727
     15 C          61.4044   85.8602    9.2081 C.2     1  UNL1        0.2371
     16 O          60.2080   86.2503   10.0245 O.2     1  UNL1       -0.2737
     17 N          62.7578   85.7837    9.8501 N.am    1  UNL1       -0.2959
     18 H          63.5431   85.5276    9.3143 H       1  UNL1        0.1499
     19 C          61.2473   85.5466    7.7497 C.3     1  UNL1        0.1316
     20 C          62.4032   84.9879    6.9739 C.3     1  UNL1        0.0270
     21 C          59.1083   86.9878    7.4372 C.3     1  UNL1        0.0862
     22 N          59.9343   85.7917    7.0671 N.3     1  UNL1       -0.2902
     23 H          60.1309   85.8670    6.0690 H       1  UNL1        0.1237
     24 C          63.9072   82.3721   13.3885 C.3     1  UNL1        0.0856
     25 C          62.7463   81.4277   13.2866 C.3     1  UNL1        0.0091
     26 C          62.7317   80.3692   12.2240 C.3     1  UNL1        0.0005
     27 C          61.6000   81.5418   14.2475 C.3     1  UNL1        0.0005
     28 C          62.5286   89.6348   13.1063 C.3     1  UNL1        0.1278
     29 C          63.4098   90.5826   12.3479 C.ar    1  UNL1        0.0320
     30 C          63.0017   91.0582   10.9851 C.ar    1  UNL1        0.1363
     31 C          63.8829   92.0061   10.2266 C.ar    1  UNL1        0.0366
     32 C          65.1719   92.4783   10.8310 C.ar    1  UNL1        0.0031
     33 C          65.5799   92.0027   12.1939 C.ar    1  UNL1        0.0004
     34 C          66.8690   92.4749   12.7983 C.ar    1  UNL1        0.0067
     35 C          67.2769   91.9992   14.1611 C.ar    1  UNL1        0.0346
     36 BR         68.5660   92.4714   14.7655 Br      1  UNL1       -0.0490
     37 C          66.3958   91.0514   14.9196 C.ar    1  UNL1        0.0067
     38 C          65.1067   90.5792   14.3151 C.ar    1  UNL1        0.0003
     39 C          64.6988   91.0548   12.9523 C.ar    1  UNL1        0.0006
     40 O          61.7127   90.5860   10.3806 O.3     1  UNL1       -0.4717
     41 C          60.2712   90.7010   10.7789 C.3     1  UNL1        0.2525
@<TRIPOS>BOND
     1    21    22    1
     2    22    19    1
     3    19    20    1
     4    19    15    1
     5    15    16    2
     6    15    17   am
     7     1    17    1
     8     1     2    1
     9     2     3    1
    10     3     4   am
    11     4     5    2
    12     4    24    1
    13    24    25    1
    14    25    26    1
    15    25    27    1
    16     3     6    1
    17     6     7   ar
    18     7     8   ar
    19     8     9   ar
    20     9    10   ar
    21    10    11   ar
    22    11    12    1
    23    12    28    1
    24    28    29    1
    25    29    30   ar
    26    30    40    1
    27    40    41    1
    28    30    31   ar
    29    31    32   ar
    30    32    33   ar
    31    33    34   ar
    32    34    35   ar
    33    35    36    1
    34    35    37   ar
    35    37    38   ar
    36    38    39   ar
    37    12    13   am
    38    13    14    2
    39    13     1    1
    40    11     6   ar
    41    39    29   ar
    42    39    33   ar
    43    22    23    1
    44    17    18    1
@<TRIPOS>MOLECULE
*****
 41 44 0 0 0
SMALL
GASTEIGER

@<TRIPOS>ATOM
      1 C          61.4398   88.7377    9.1233 C.3     1  UNL1        0.1695
      2 C          61.9257   87.3988    8.6528 C.3     1  UNL1        0.1271
      3 N          62.5471   86.2945    9.4555 N.am    1  UNL1       -0.2553
      4 C          62.9303   85.0659    8.6849 C.2     1  UNL1        0.2294
      5 O          63.5593   83.9024    9.3925 O.2     1  UNL1       -0.2745
      6 C          62.8360   86.2562   10.9269 C.ar    1  UNL1        0.0676
      7 C          63.4669   84.9558   11.3279 C.ar    1  UNL1        0.0162
      8 C          63.8367   84.7120   12.7610 C.ar    1  UNL1        0.0014
      9 C          63.5756   85.7686   13.7931 C.ar    1  UNL1        0.0014
     10 C          62.9447   87.0691   13.3922 C.ar    1  UNL1        0.0162
     11 C          62.5749   87.3128   11.9591 C.ar    1  UNL1        0.0679
     12 N          61.9604   88.6687   11.7747 N.am    1  UNL1       -0.2517
     13 C          61.4552   89.3029   10.5127 C.2     1  UNL1        0.2493
     14 O          60.8909   90.6848   10.6594 O.2     1  UNL1       -0.2727
     15 C          59.6542   89.1899    7.2910 C.2     1  UNL1        0.2371
     16 O          59.0241   87.8589    7.5766 O.2     1  UNL1       -0.2737
     17 N          60.8621   89.6292    8.0644 N.am    1  UNL1       -0.2959
     18 H          61.2756   90.5028    7.8770 H       1  UNL1        0.1499
     19 C          59.0765   90.0815    6.2321 C.3     1  UNL1        0.1316
     20 C          59.9864   90.8632    5.3315 C.3     1  UNL1        0.0270
     21 C          57.0093   91.1608    5.0868 C.3     1  UNL1        0.0862
     22 N          57.5890   90.1913    6.0738 N.3     1  UNL1       -0.2902
     23 H          57.2518   89.2655    5.8100 H       1  UNL1        0.1237
     24 C          62.6843   85.0008    7.2066 C.3     1  UNL1        0.0856
     25 C          61.3154   84.6740    6.6877 C.3     1  UNL1        0.0091
     26 C          60.1030   85.2570    7.3511 C.3     1  UNL1        0.0005
     27 C          61.1590   83.7643    5.5053 C.3     1  UNL1        0.0005
     28 C          61.8344   89.5005   13.0166 C.3     1  UNL1        0.1278
     29 C          63.0416   90.1840   13.5872 C.ar    1  UNL1        0.0320
     30 C          63.3754   90.0263   15.0410 C.ar    1  UNL1        0.1363
     31 C          64.5825   90.7098   15.6118 C.ar    1  UNL1        0.0366
     32 C          65.4558   91.5510   14.7286 C.ar    1  UNL1        0.0031
     33 C          65.1218   91.7087   13.2747 C.ar    1  UNL1        0.0004
     34 C          65.9951   92.5498   12.3916 C.ar    1  UNL1        0.0067
     35 C          65.6611   92.7075   10.9378 C.ar    1  UNL1        0.0346
     36 BR         66.5343   93.5486   10.0546 Br      1  UNL1       -0.0490
     37 C          64.4540   92.0239   10.3670 C.ar    1  UNL1        0.0067
     38 C          63.5808   91.1828   11.2503 C.ar    1  UNL1        0.0003
     39 C          63.9147   91.0252   12.7040 C.ar    1  UNL1        0.0006
     40 O          62.5023   89.1852   15.9243 O.3     1  UNL1       -0.4717
     41 C          62.7722   88.1373   16.9629 C.3     1  UNL1        0.2525
@<TRIPOS>BOND
     1    21    22    1
     2    22    19    1
     3    19    20    1
     4    19    15    1
     5    15    16    2
     6    15    17   am
     7     1    17    1
     8     1     2    1
     9     2     3    1
    10     3     4   am
    11     4     5    2
    12     4    24    1
    13    24    25    1
    14    25    26    1
    15    25    27    1
    16     3     6    1
    17     6     7   ar
    18     7     8   ar
    19     8     9   ar
    20     9    10   ar
    21    10    11   ar
    22    11    12    1
    23    12    28    1
    24    28    29    1
    25    29    30   ar
    26    30    40    1
    27    40    41    1
    28    30    31   ar
    29    31    32   ar
    30    32    33   ar
    31    33    34   ar
    32    34    35   ar
    33    35    36    1
    34    35    37   ar
    35    37    38   ar
    36    38    39   ar
    37    12    13   am
    38    13    14    2
    39    13     1    1
    40    11     6   ar
    41    39    29   ar
    42    39    33   ar
    43    22    23    1
    44    17    18    1
@<TRIPOS>MOLECULE
*****
 41 44 0 0 0
SMALL
GASTEIGER

@<TRIPOS>ATOM
      1 C          61.6619   89.1963    9.9497 C.3     1  UNL1        0.1695
      2 C          61.7437   87.6990    9.9104 C.3     1  UNL1        0.1271
      3 N          62.3518   86.7689   10.9179 N.am    1  UNL1       -0.2553
      4 C          62.2730   85.3082   10.5859 C.2     1  UNL1        0.2294
      5 O          62.8510   84.2929   11.5267 O.2     1  UNL1       -0.2745
      6 C          63.0282   87.1062   12.2136 C.ar    1  UNL1        0.0676
      7 C          63.4972   85.8715   12.9246 C.ar    1  UNL1        0.0162
      8 C          64.2016   85.9877   14.2438 C.ar    1  UNL1        0.0014
      9 C          64.4370   87.3385   14.8519 C.ar    1  UNL1        0.0014
     10 C          63.9681   88.5731   14.1409 C.ar    1  UNL1        0.0162
     11 C          63.2637   88.4570   12.8217 C.ar    1  UNL1        0.0679
     12 N          62.8808   89.8041   12.2843 N.am    1  UNL1       -0.2517
     13 C          62.1680   90.1332   11.0062 C.2     1  UNL1        0.2493
     14 O          61.9297   91.5919   10.7509 O.2     1  UNL1       -0.2727
     15 C          60.0444   89.0454    7.9222 C.2     1  UNL1        0.2371
     16 O          59.7818   87.6029    8.2390 O.2     1  UNL1       -0.2737
     17 N          60.9845   89.8421    8.7776 N.am    1  UNL1       -0.2959
     18 H          61.1568   90.7888    8.5696 H       1  UNL1        0.1499
     19 C          59.3670   89.6912    6.7500 C.3     1  UNL1        0.1316
     20 C          57.8994   89.4802    6.5222 C.3     1  UNL1        0.0270
     21 C          59.4518   91.5170    4.9036 C.3     1  UNL1        0.0862
     22 N          60.1570   90.5480    5.8057 N.3     1  UNL1       -0.2902
     23 H          60.8047   91.0932    6.3746 H       1  UNL1        0.1237
     24 C          61.6162   84.8628    9.3129 C.3     1  UNL1        0.0856
     25 C          62.3250   85.0371    8.0024 C.3     1  UNL1        0.0091
     26 C          61.5691   84.8883    6.7154 C.3     1  UNL1        0.0005
     27 C          63.7896   85.3602    7.9791 C.3     1  UNL1        0.0005
     28 C          63.2611   90.9774   13.1381 C.3     1  UNL1        0.1278
     29 C          64.7079   91.2951   13.3749 C.ar    1  UNL1        0.0320
     30 C          65.3202   91.0437   14.7210 C.ar    1  UNL1        0.1363
     31 C          66.7669   91.3614   14.9579 C.ar    1  UNL1        0.0366
     32 C          67.6012   91.9304   13.8487 C.ar    1  UNL1        0.0031
     33 C          66.9888   92.1817   12.5027 C.ar    1  UNL1        0.0004
     34 C          67.8231   92.7507   11.3935 C.ar    1  UNL1        0.0067
     35 C          67.2107   93.0019   10.0475 C.ar    1  UNL1        0.0346
     36 BR         68.0450   93.5709    8.9384 Br      1  UNL1       -0.0490
     37 C          65.7640   92.6843    9.8106 C.ar    1  UNL1        0.0067
     38 C          64.9297   92.1153   10.9198 C.ar    1  UNL1        0.0003
     39 C          65.5421   91.8640   12.2657 C.ar    1  UNL1        0.0006
     40 O          64.4860   90.4748   15.8302 O.3     1  UNL1       -0.4717
     41 C          63.4597   91.0483   16.7617 C.3     1  UNL1        0.2525
@<TRIPOS>BOND
     1    21    22    1
     2    22    19    1
     3    19    20    1
     4    19    15    1
     5    15    16    2
     6    15    17   am
     7     1    17    1
     8     1     2    1
     9     2     3    1
    10     3     4   am
    11     4     5    2
    12     4    24    1
    13    24    25    1
    14    25    26    1
    15    25    27    1
    16     3     6    1
    17     6     7   ar
    18     7     8   ar
    19     8     9   ar
    20     9    10   ar
    21    10    11   ar
    22    11    12    1
    23    12    28    1
    24    28    29    1
    25    29    30   ar
    26    30    40    1
    27    40    41    1
    28    30    31   ar
    29    31    32   ar
    30    32    33   ar
    31    33    34   ar
    32    34    35   ar
    33    35    36    1
    34    35    37   ar
    35    37    38   ar
    36    38    39   ar
    37    12    13   am
    38    13    14    2
    39    13     1    1
    40    11     6   ar
    41    39    29   ar
    42    39    33   ar
    43    22    23    1
    44    17    18    1
@<TRIPOS>MOLECULE
*****
 41 44 0 0 0
SMALL
GASTEIGER

@<TRIPOS>ATOM
      1 C          62.9396   86.1362   11.6029 C.3     1  UNL1        0.1695
      2 C          62.4048   85.8168   10.2384 C.3     1  UNL1        0.1271
      3 N          61.5346   86.6600    9.3541 N.am    1  UNL1       -0.2553
      4 C          61.1659   86.0520    8.0334 C.2     1  UNL1        0.2294
      5 O          60.2988   86.8119    7.0737 O.2     1  UNL1       -0.2745
      6 C          60.9843   88.0306    9.6159 C.ar    1  UNL1        0.0676
      7 C          60.1557   88.5176    8.4643 C.ar    1  UNL1        0.0162
      8 C          59.5111   89.8708    8.5235 C.ar    1  UNL1        0.0014
      9 C          59.6952   90.7369    9.7343 C.ar    1  UNL1        0.0014
     10 C          60.5238   90.2498   10.8859 C.ar    1  UNL1        0.0162
     11 C          61.1683   88.8967   10.8267 C.ar    1  UNL1        0.0679
     12 N          61.9481   88.6060   12.0747 N.am    1  UNL1       -0.2517
     13 C          62.7364   87.3775   12.4202 C.2     1  UNL1        0.2493
     14 O          63.4106   87.3923   13.7600 O.2     1  UNL1       -0.2727
     15 C          63.2313   84.2201   13.3330 C.2     1  UNL1        0.2371
     16 O          61.8217   84.4287   13.8017 O.2     1  UNL1       -0.2737
     17 N          63.7902   85.0738   12.2336 N.am    1  UNL1       -0.2959
     18 H          64.7153   84.9368   11.9260 H       1  UNL1        0.1499
     19 C          64.0818   83.1576   13.9637 C.3     1  UNL1        0.1316
     20 C          64.7341   83.4088   15.2910 C.3     1  UNL1        0.0270
     21 C          63.1009   81.1092   12.7020 C.3     1  UNL1        0.0862
     22 N          64.2802   81.8441   13.2672 N.3     1  UNL1       -0.2902
     23 H          64.9196   82.0158   12.4913 H       1  UNL1        0.1237
     24 C          61.6642   84.6840    7.6721 C.3     1  UNL1        0.0856
     25 C          61.9808   84.3542    6.2435 C.3     1  UNL1        0.0091
     26 C          63.3346   84.6739    5.6823 C.3     1  UNL1        0.0005
     27 C          60.9435   83.7047    5.3761 C.3     1  UNL1        0.0005
     28 C          61.9383   89.6868   13.1148 C.3     1  UNL1        0.1278
     29 C          63.2314   90.2678   13.6050 C.ar    1  UNL1        0.0320
     30 C          63.6523   90.0644   15.0303 C.ar    1  UNL1        0.1363
     31 C          64.9454   90.6453   15.5206 C.ar    1  UNL1        0.0366
     32 C          65.8176   91.4297   14.5857 C.ar    1  UNL1        0.0031
     33 C          65.3966   91.6331   13.1604 C.ar    1  UNL1        0.0004
     34 C          66.2687   92.4175   12.2254 C.ar    1  UNL1        0.0067
     35 C          65.8477   92.6209   10.8001 C.ar    1  UNL1        0.0346
     36 BR         66.7199   93.4053    9.8652 Br      1  UNL1       -0.0490
     37 C          64.5546   92.0399   10.3098 C.ar    1  UNL1        0.0067
     38 C          63.6825   91.2556   11.2448 C.ar    1  UNL1        0.0003
     39 C          64.1035   91.0522   12.6700 C.ar    1  UNL1        0.0006
     40 O          62.7803   89.2801   15.9653 O.3     1  UNL1       -0.4717
     41 C          63.0494   88.2675   17.0387 C.3     1  UNL1        0.2525
@<TRIPOS>BOND
     1    21    22    1
     2    22    19    1
     3    19    20    1
     4    19    15    1
     5    15    16    2
     6    15    17   am
     7     1    17    1
     8     1     2    1
     9     2     3    1
    10     3     4   am
    11     4     5    2
    12     4    24    1
    13    24    25    1
    14    25    26    1
    15    25    27    1
    16     3     6    1
    17     6     7   ar
    18     7     8   ar
    19     8     9   ar
    20     9    10   ar
    21    10    11   ar
    22    11    12    1
    23    12    28    1
    24    28    29    1
    25    29    30   ar
    26    30    40    1
    27    40    41    1
    28    30    31   ar
    29    31    32   ar
    30    32    33   ar
    31    33    34   ar
    32    34    35   ar
    33    35    36    1
    34    35    37   ar
    35    37    38   ar
    36    38    39   ar
    37    12    13   am
    38    13    14    2
    39    13     1    1
    40    11     6   ar
    41    39    29   ar
    42    39    33   ar
    43    22    23    1
    44    17    18    1
@<TRIPOS>MOLECULE
*****
 41 44 0 0 0
SMALL
GASTEIGER

@<TRIPOS>ATOM
      1 C          62.2003   88.2448   10.5175 C.3     1  UNL1        0.1695
      2 C          62.4309   86.8219   10.9326 C.3     1  UNL1        0.1271
      3 N          63.0194   86.3046   12.2117 N.am    1  UNL1       -0.2553
      4 C          63.1177   84.8122   12.3261 C.2     1  UNL1        0.2294
      5 O          63.6915   84.1911   13.5651 O.2     1  UNL1       -0.2745
      6 C          63.5226   87.0823   13.3916 C.ar    1  UNL1        0.0676
      7 C          64.0335   86.1731   14.4697 C.ar    1  UNL1        0.0162
      8 C          64.5834   86.7511   15.7399 C.ar    1  UNL1        0.0014
      9 C          64.6224   88.2382   15.9320 C.ar    1  UNL1        0.0014
     10 C          64.1115   89.1474   14.8539 C.ar    1  UNL1        0.0162
     11 C          63.5616   88.5694   13.5837 C.ar    1  UNL1        0.0679
     12 N          63.1070   89.6461   12.6434 N.am    1  UNL1       -0.2517
     13 C          62.5012   89.5017   11.2788 C.2     1  UNL1        0.2493
     14 O          62.1498   90.7836   10.5837 O.2     1  UNL1       -0.2727
     15 C          60.0958   88.4565    9.0088 C.2     1  UNL1        0.2371
     16 O          59.2162   88.2857   10.2118 O.2     1  UNL1       -0.2737
     17 N          61.5878   88.4360    9.1616 N.am    1  UNL1       -0.2959
     18 H          62.1651   88.5481    8.3721 H       1  UNL1        0.1499
     19 C          59.4833   88.6477    7.6530 C.3     1  UNL1        0.1316
     20 C          59.6390   89.9569    6.9376 C.3     1  UNL1        0.0270
     21 C          59.0482   86.1051    7.3433 C.3     1  UNL1        0.0862
     22 N          58.7151   87.5298    7.0126 N.3     1  UNL1       -0.2902
     23 H          57.7348   87.6677    7.2581 H       1  UNL1        0.1237
     24 C          62.6421   83.9409   11.2015 C.3     1  UNL1        0.0856
     25 C          63.3262   82.6352   10.9235 C.3     1  UNL1        0.0091
     26 C          64.5364   82.5961   10.0382 C.3     1  UNL1        0.0005
     27 C          62.8000   81.3686   11.5310 C.3     1  UNL1        0.0005
     28 C          63.2813   91.0534   13.1325 C.3     1  UNL1        0.1278
     29 C          64.6548   91.5816   13.4238 C.ar    1  UNL1        0.0320
     30 C          65.1092   91.7465   14.8437 C.ar    1  UNL1        0.1363
     31 C          66.4826   92.2746   15.1350 C.ar    1  UNL1        0.0366
     32 C          67.4015   92.6378   14.0064 C.ar    1  UNL1        0.0031
     33 C          66.9470   92.4729   12.5864 C.ar    1  UNL1        0.0004
     34 C          67.8659   92.8361   11.4578 C.ar    1  UNL1        0.0067
     35 C          67.4113   92.6711   10.0379 C.ar    1  UNL1        0.0346
     36 BR         68.3302   93.0343    8.9093 Br      1  UNL1       -0.0490
     37 C          66.0379   92.1429    9.7466 C.ar    1  UNL1        0.0067
     38 C          65.1191   91.7798   10.8752 C.ar    1  UNL1        0.0003
     39 C          65.5736   91.9447   12.2951 C.ar    1  UNL1        0.0006
     40 O          64.1904   91.3833   15.9723 O.3     1  UNL1       -0.4717
     41 C          63.8107   92.0483   17.2621 C.3     1  UNL1        0.2525
@<TRIPOS>BOND
     1    21    22    1
     2    22    19    1
     3    19    20    1
     4    19    15    1
     5    15    16    2
     6    15    17   am
     7     1    17    1
     8     1     2    1
     9     2     3    1
    10     3     4   am
    11     4     5    2
    12     4    24    1
    13    24    25    1
    14    25    26    1
    15    25    27    1
    16     3     6    1
    17     6     7   ar
    18     7     8   ar
    19     8     9   ar
    20     9    10   ar
    21    10    11   ar
    22    11    12    1
    23    12    28    1
    24    28    29    1
    25    29    30   ar
    26    30    40    1
    27    40    41    1
    28    30    31   ar
    29    31    32   ar
    30    32    33   ar
    31    33    34   ar
    32    34    35   ar
    33    35    36    1
    34    35    37   ar
    35    37    38   ar
    36    38    39   ar
    37    12    13   am
    38    13    14    2
    39    13     1    1
    40    11     6   ar
    41    39    29   ar
    42    39    33   ar
    43    22    23    1
    44    17    18    1
@<TRIPOS>MOLECULE
*****
 41 44 0 0 0
SMALL
GASTEIGER

@<TRIPOS>ATOM
      1 C          61.9114   86.7392   10.6490 C.3     1  UNL1        0.1695
      2 C          61.9067   88.2290   10.8238 C.3     1  UNL1        0.1271
      3 N          62.5969   89.0497   11.8727 N.am    1  UNL1       -0.2553
      4 C          62.3951   90.5329   11.7757 C.2     1  UNL1        0.2294
      5 O          63.0418   91.4449   12.7758 O.2     1  UNL1       -0.2745
      6 C          63.4623   88.5834   13.0057 C.ar    1  UNL1        0.0676
      7 C          63.9578   89.7363   13.8273 C.ar    1  UNL1        0.0162
      8 C          64.8422   89.4871   15.0129 C.ar    1  UNL1        0.0014
      9 C          65.2311   88.0848   15.3769 C.ar    1  UNL1        0.0014
     10 C          64.7355   86.9319   14.5553 C.ar    1  UNL1        0.0162
     11 C          63.8511   87.1811   13.3697 C.ar    1  UNL1        0.0679
     12 N          63.4707   85.8989   12.6906 N.am    1  UNL1       -0.2517
     13 C          62.6074   85.7022   11.4798 C.2     1  UNL1        0.2493
     14 O          62.4147   84.2806   11.0418 O.2     1  UNL1       -0.2727
     15 C          61.8155   85.7341    8.2552 C.2     1  UNL1        0.2371
     16 O          63.3131   85.7725    8.1790 O.2     1  UNL1       -0.2737
     17 N          61.1146   86.2175    9.4901 N.am    1  UNL1       -0.2959
     18 H          60.1317   86.1923    9.5401 H       1  UNL1        0.1499
     19 C          61.0187   85.2124    7.0963 C.3     1  UNL1        0.1316
     20 C          61.7028   84.4576    5.9951 C.3     1  UNL1        0.0270
     21 C          58.9705   86.7699    7.4548 C.3     1  UNL1        0.0862
     22 N          59.5381   85.4453    7.0386 N.3     1  UNL1       -0.2902
     23 H          59.2538   85.2942    6.0707 H       1  UNL1        0.1237
     24 C          61.5465   91.1042   10.6786 C.3     1  UNL1        0.0856
     25 C          60.1644   90.5705   10.4442 C.3     1  UNL1        0.0091
     26 C          59.1197   90.6989   11.5128 C.3     1  UNL1        0.0005
     27 C          59.8271   89.9083    9.1412 C.3     1  UNL1        0.0005
     28 C          64.0271   84.6479   13.3033 C.3     1  UNL1        0.1278
     29 C          63.1313   83.4699   13.5478 C.ar    1  UNL1        0.0320
     30 C          62.2405   83.4428   14.7544 C.ar    1  UNL1        0.1363
     31 C          61.3447   82.2648   14.9990 C.ar    1  UNL1        0.0366
     32 C          61.3396   81.1139   14.0370 C.ar    1  UNL1        0.0031
     33 C          62.2304   81.1410   12.8304 C.ar    1  UNL1        0.0004
     34 C          62.2254   79.9901   11.8683 C.ar    1  UNL1        0.0067
     35 C          63.1161   80.0173   10.6618 C.ar    1  UNL1        0.0346
     36 BR         63.1111   78.8664    9.6998 Br      1  UNL1       -0.0490
     37 C          64.0120   81.1953   10.4172 C.ar    1  UNL1        0.0067
     38 C          64.0170   82.3462   11.3793 C.ar    1  UNL1        0.0003
     39 C          63.1263   82.3190   12.5858 C.ar    1  UNL1        0.0006
     40 O          62.2455   84.5936   15.7165 O.3     1  UNL1       -0.4717
     41 C          63.1696   85.0299   16.8145 C.3     1  UNL1        0.2525
@<TRIPOS>BOND
     1    21    22    1
     2    22    19    1
     3    19    20    1
     4    19    15    1
     5    15    16    2
     6    15    17   am
     7     1    17    1
     8     1     2    1
     9     2     3    1
    10     3     4   am
    11     4     5    2
    12     4    24    1
    13    24    25    1
    14    25    26    1
    15    25    27    1
    16     3     6    1
    17     6     7   ar
    18     7     8   ar
    19     8     9   ar
    20     9    10   ar
    21    10    11   ar
    22    11    12    1
    23    12    28    1
    24    28    29    1
    25    29    30   ar
    26    30    40    1
    27    40    41    1
    28    30    31   ar
    29    31    32   ar
    30    32    33   ar
    31    33    34   ar
    32    34    35   ar
    33    35    36    1
    34    35    37   ar
    35    37    38   ar
    36    38    39   ar
    37    12    13   am
    38    13    14    2
    39    13     1    1
    40    11     6   ar
    41    39    29   ar
    42    39    33   ar
    43    22    23    1
    44    17    18    1
