@<TRIPOS>MOLECULE
*****
 31 34 0 0 0
SMALL
GASTEIGER

@<TRIPOS>ATOM
      1 C          63.5431   88.6926   12.7568 C.2     1  UNL1        0.0681
      2 N          63.9042   87.4254   13.4739 N.2     1  UNL1       -0.2479
      3 C          63.4386   86.0272   13.1940 C.ar    1  UNL1        0.0940
      4 C          64.0441   85.0458   14.1532 C.ar    1  UNL1        0.0160
      5 C          63.7079   83.5878   14.0465 C.ar    1  UNL1       -0.0164
      6 C          64.3134   82.6063   15.0056 C.3     1  UNL1        0.0310
      7 C          62.7662   83.1114   12.9805 C.ar    1  UNL1        0.0688
      8 C          62.1607   84.0929   12.0213 C.ar    1  UNL1        0.0197
      9 C          62.4970   85.5509   12.1281 C.ar    1  UNL1        0.0681
     10 N          61.7883   86.3549   11.0787 N.am    1  UNL1       -0.2824
     11 C          61.8462   87.8340   10.8361 C.2     1  UNL1        0.2322
     12 O          61.0131   88.3396    9.6959 O.2     1  UNL1       -0.2744
     13 C          62.6272   88.8743   11.5830 C.3     1  UNL1        0.1309
     14 H          61.2084   85.8443   10.4685 H       1  UNL1        0.1549
     15 C          65.4724   92.1591   12.8641 C.ar    1  UNL1        0.0001
     16 C          65.4611   92.4443   14.3367 C.ar    1  UNL1        0.0000
     17 C          64.8105   91.4789   15.2827 C.ar    1  UNL1        0.0000
     18 C          64.1711   90.2284   14.7559 C.ar    1  UNL1        0.0012
     19 C          64.1824   89.9431   13.2834 C.ar    1  UNL1        0.0140
     20 C          64.8331   90.9084   12.3374 C.ar    1  UNL1        0.0012
     21 C          68.3566   93.0665    8.6382 C.3     1  UNL1        0.0521
     22 C          67.5652   93.5781    9.8052 C.ar    1  UNL1        0.0594
     23 C          66.9145   92.6128   10.7512 C.ar    1  UNL1        0.0147
     24 C          66.1230   93.1243   11.9182 C.ar    1  UNL1        0.0027
     25 C          65.9821   94.6013   12.1392 C.ar    1  UNL1        0.0207
     26 C          66.6328   95.5666   11.1932 C.ar    1  UNL1        0.0984
     27 N          67.4243   95.0550   10.0263 N.ar    1  UNL1       -0.2481
     28 C          62.4300   81.6535   12.8737 C.3     1  UNL1        0.4183
     29 F          62.0938   80.1955   12.7668 F       1  UNL1       -0.1659
     30 F          61.4143   81.8076   13.9666 F       1  UNL1       -0.1659
     31 F          63.4458   81.4993   11.7808 F       1  UNL1       -0.1659
@<TRIPOS>BOND
     1    21    22    1
     2    22    23   ar
     3    23    24   ar
     4    24    15    1
     5    15    16   ar
     6    16    17   ar
     7    17    18   ar
     8    18    19   ar
     9    19     1    1
    10     1     2    2
    11     2     3    1
    12     3     4   ar
    13     4     5   ar
    14     5     6    1
    15     5     7   ar
    16     7    28    1
    17    28    29    1
    18    28    30    1
    19    28    31    1
    20     7     8   ar
    21     8     9   ar
    22     9    10    1
    23    10    11   am
    24    11    12    2
    25    11    13    1
    26    19    20   ar
    27    24    25   ar
    28    25    26   ar
    29    26    27   ar
    30    27    22   ar
    31    20    15   ar
    32    13     1    1
    33     9     3   ar
    34    10    14    1
@<TRIPOS>MOLECULE
*****
 31 34 0 0 0
SMALL
GASTEIGER

@<TRIPOS>ATOM
      1 C          63.6344   87.6213   14.2353 C.2     1  UNL1        0.0681
      2 N          63.5542   86.4803   13.2647 N.2     1  UNL1       -0.2479
      3 C          63.2842   85.0316   13.5447 C.ar    1  UNL1        0.0940
      4 C          63.2904   84.2194   12.2836 C.ar    1  UNL1        0.0160
      5 C          63.0403   82.7415   12.3421 C.ar    1  UNL1       -0.0164
      6 C          63.0465   81.9293   11.0811 C.3     1  UNL1        0.0310
      7 C          62.7839   82.0759   13.6617 C.ar    1  UNL1        0.0688
      8 C          62.7777   82.8882   14.9228 C.ar    1  UNL1        0.0197
      9 C          63.0278   84.3661   14.8642 C.ar    1  UNL1        0.0681
     10 N          62.9781   84.9848   16.2298 N.am    1  UNL1       -0.2824
     11 C          63.1724   86.4219   16.6130 C.2     1  UNL1        0.2322
     12 O          63.0598   86.7259   18.0775 O.2     1  UNL1       -0.2744
     13 C          63.4645   87.5952   15.7253 C.3     1  UNL1        0.1309
     14 H          62.7935   84.3658   16.9727 H       1  UNL1        0.1549
     15 C          65.2409   91.2047   13.6619 C.ar    1  UNL1        0.0001
     16 C          64.4991   91.6554   12.4385 C.ar    1  UNL1        0.0000
     17 C          63.4690   90.7614   11.8140 C.ar    1  UNL1        0.0000
     18 C          63.1809   89.4167   12.4130 C.ar    1  UNL1        0.0012
     19 C          63.9227   88.9660   13.6364 C.ar    1  UNL1        0.0140
     20 C          64.9526   89.8600   14.2608 C.ar    1  UNL1        0.0012
     21 C          69.2878   91.8630   16.8538 C.3     1  UNL1        0.0521
     22 C          68.2943   92.4279   15.8823 C.ar    1  UNL1        0.0594
     23 C          67.2643   91.5338   15.2578 C.ar    1  UNL1        0.0147
     24 C          66.2708   92.0987   14.2863 C.ar    1  UNL1        0.0027
     25 C          66.3072   93.5575   13.9391 C.ar    1  UNL1        0.0207
     26 C          67.3372   94.4515   14.5636 C.ar    1  UNL1        0.0984
     27 N          68.3308   93.8867   15.5351 N.ar    1  UNL1       -0.2481
     28 C          62.5338   80.5981   13.7203 C.3     1  UNL1        0.4183
     29 F          62.2835   79.1203   13.7789 F       1  UNL1       -0.1659
     30 F          64.0024   80.3568   13.9062 F       1  UNL1       -0.1659
     31 F          61.0650   80.8394   13.5344 F       1  UNL1       -0.1659
@<TRIPOS>BOND
     1    21    22    1
     2    22    23   ar
     3    23    24   ar
     4    24    15    1
     5    15    16   ar
     6    16    17   ar
     7    17    18   ar
     8    18    19   ar
     9    19     1    1
    10     1     2    2
    11     2     3    1
    12     3     4   ar
    13     4     5   ar
    14     5     6    1
    15     5     7   ar
    16     7    28    1
    17    28    29    1
    18    28    30    1
    19    28    31    1
    20     7     8   ar
    21     8     9   ar
    22     9    10    1
    23    10    11   am
    24    11    12    2
    25    11    13    1
    26    19    20   ar
    27    24    25   ar
    28    25    26   ar
    29    26    27   ar
    30    27    22   ar
    31    20    15   ar
    32    13     1    1
    33     9     3   ar
    34    10    14    1
@<TRIPOS>MOLECULE
*****
 31 34 0 0 0
SMALL
GASTEIGER

@<TRIPOS>ATOM
      1 C          62.8028   87.8327   11.2600 C.2     1  UNL1        0.0681
      2 N          63.2068   86.9182   12.3783 N.2     1  UNL1       -0.2479
      3 C          62.9737   85.4422   12.5099 C.ar    1  UNL1        0.0940
      4 C          63.5427   84.9098   13.7916 C.ar    1  UNL1        0.0160
      5 C          63.4169   83.4514   14.1194 C.ar    1  UNL1       -0.0164
      6 C          63.9858   82.9189   15.4010 C.3     1  UNL1        0.0310
      7 C          62.7222   82.5255   13.1654 C.ar    1  UNL1        0.0688
      8 C          62.1532   83.0580   11.8836 C.ar    1  UNL1        0.0197
      9 C          62.2790   84.5164   11.5559 C.ar    1  UNL1        0.0681
     10 N          61.6458   84.8377   10.2346 N.am    1  UNL1       -0.2824
     11 C          61.5510   86.1643    9.5410 C.2     1  UNL1        0.2322
     12 O          60.8483   86.1570    8.2158 O.2     1  UNL1       -0.2744
     13 C          62.0659   87.4972    9.9974 C.3     1  UNL1        0.1309
     14 H          61.2387   84.0774    9.7599 H       1  UNL1        0.1549
     15 C          64.1679   91.1862   12.8852 C.ar    1  UNL1        0.0001
     16 C          63.9537   92.1543   11.7596 C.ar    1  UNL1        0.0000
     17 C          63.3559   91.6819   10.4675 C.ar    1  UNL1        0.0000
     18 C          62.9722   90.2413   10.3010 C.ar    1  UNL1        0.0012
     19 C          63.1864   89.2732   11.4266 C.ar    1  UNL1        0.0140
     20 C          63.7842   89.7456   12.7186 C.ar    1  UNL1        0.0012
     21 C          68.0430   93.4799   15.4779 C.3     1  UNL1        0.0521
     22 C          66.7032   92.8054   15.4736 C.ar    1  UNL1        0.0594
     23 C          66.1054   92.3330   14.1815 C.ar    1  UNL1        0.0147
     24 C          64.7656   91.6585   14.1772 C.ar    1  UNL1        0.0027
     25 C          64.0236   91.4564   15.4651 C.ar    1  UNL1        0.0207
     26 C          64.6214   91.9288   16.7572 C.ar    1  UNL1        0.0984
     27 N          65.9611   92.6032   16.7615 N.ar    1  UNL1       -0.2481
     28 C          62.5964   81.0672   13.4930 C.3     1  UNL1        0.4183
     29 F          62.4705   79.6088   13.8207 F       1  UNL1       -0.1659
     30 F          63.9228   80.8066   12.8429 F       1  UNL1       -0.1659
     31 F          61.2699   81.3277   14.1431 F       1  UNL1       -0.1659
@<TRIPOS>BOND
     1    21    22    1
     2    22    23   ar
     3    23    24   ar
     4    24    15    1
     5    15    16   ar
     6    16    17   ar
     7    17    18   ar
     8    18    19   ar
     9    19     1    1
    10     1     2    2
    11     2     3    1
    12     3     4   ar
    13     4     5   ar
    14     5     6    1
    15     5     7   ar
    16     7    28    1
    17    28    29    1
    18    28    30    1
    19    28    31    1
    20     7     8   ar
    21     8     9   ar
    22     9    10    1
    23    10    11   am
    24    11    12    2
    25    11    13    1
    26    19    20   ar
    27    24    25   ar
    28    25    26   ar
    29    26    27   ar
    30    27    22   ar
    31    20    15   ar
    32    13     1    1
    33     9     3   ar
    34    10    14    1
@<TRIPOS>MOLECULE
*****
 31 34 0 0 0
SMALL
GASTEIGER

@<TRIPOS>ATOM
      1 C          63.2859   87.5767   13.1839 C.2     1  UNL1        0.0681
      2 N          63.1627   86.3046   12.3985 N.2     1  UNL1       -0.2479
      3 C          63.0643   84.8970   12.9076 C.ar    1  UNL1        0.0940
      4 C          62.9548   83.9132   11.7806 C.ar    1  UNL1        0.0160
      5 C          62.8457   82.4461   12.0737 C.ar    1  UNL1       -0.0164
      6 C          62.7361   81.4622   10.9468 C.3     1  UNL1        0.0310
      7 C          62.8461   81.9630   13.4938 C.ar    1  UNL1        0.0688
      8 C          62.9557   82.9469   14.6207 C.ar    1  UNL1        0.0197
      9 C          63.0648   84.4140   14.3276 C.ar    1  UNL1        0.0681
     10 N          63.1637   85.2190   15.5894 N.am    1  UNL1       -0.2824
     11 C          63.2867   86.7061   15.7427 C.2     1  UNL1        0.2322
     12 O          63.3658   87.2106   17.1530 O.2     1  UNL1       -0.2744
     13 C          63.3410   87.7553   14.6721 C.3     1  UNL1        0.1309
     14 H          63.1456   84.7032   16.4277 H       1  UNL1        0.1549
     15 C          64.3227   91.2246   12.0140 C.ar    1  UNL1        0.0001
     16 C          63.5208   91.3565   10.7533 C.ar    1  UNL1        0.0000
     17 C          62.6406   90.2285   10.3027 C.ar    1  UNL1        0.0000
     18 C          62.5623   88.9686   11.1129 C.ar    1  UNL1        0.0012
     19 C          63.3642   88.8367   12.3737 C.ar    1  UNL1        0.0140
     20 C          64.2444   89.9646   12.8243 C.ar    1  UNL1        0.0012
     21 C          67.3751   93.3862   15.6210 C.3     1  UNL1        0.0521
     22 C          66.7290   93.4333   14.2681 C.ar    1  UNL1        0.0594
     23 C          65.8488   92.3053   13.8175 C.ar    1  UNL1        0.0147
     24 C          65.2028   92.3525   12.4646 C.ar    1  UNL1        0.0027
     25 C          65.4369   93.5276   11.5622 C.ar    1  UNL1        0.0207
     26 C          66.3171   94.6556   12.0128 C.ar    1  UNL1        0.0984
     27 N          66.9631   94.6084   13.3657 N.ar    1  UNL1       -0.2481
     28 C          62.7371   80.4960   13.7870 C.3     1  UNL1        0.4183
     29 F          62.6279   79.0290   14.0802 F       1  UNL1       -0.1659
     30 F          64.2324   80.3973   13.8502 F       1  UNL1       -0.1659
     31 F          61.2416   80.5946   13.7238 F       1  UNL1       -0.1659
@<TRIPOS>BOND
     1    21    22    1
     2    22    23   ar
     3    23    24   ar
     4    24    15    1
     5    15    16   ar
     6    16    17   ar
     7    17    18   ar
     8    18    19   ar
     9    19     1    1
    10     1     2    2
    11     2     3    1
    12     3     4   ar
    13     4     5   ar
    14     5     6    1
    15     5     7   ar
    16     7    28    1
    17    28    29    1
    18    28    30    1
    19    28    31    1
    20     7     8   ar
    21     8     9   ar
    22     9    10    1
    23    10    11   am
    24    11    12    2
    25    11    13    1
    26    19    20   ar
    27    24    25   ar
    28    25    26   ar
    29    26    27   ar
    30    27    22   ar
    31    20    15   ar
    32    13     1    1
    33     9     3   ar
    34    10    14    1
@<TRIPOS>MOLECULE
*****
 31 34 0 0 0
SMALL
GASTEIGER

@<TRIPOS>ATOM
      1 C          63.7137   87.9962   15.6057 C.2     1  UNL1        0.0681
      2 N          63.9338   87.1634   14.3776 N.2     1  UNL1       -0.2479
      3 C          63.6314   85.7093   14.1671 C.ar    1  UNL1        0.0940
      4 C          64.0075   85.2660   12.7844 C.ar    1  UNL1        0.0160
      5 C          63.7864   83.8423   12.3671 C.ar    1  UNL1       -0.0164
      6 C          64.1624   83.3989   10.9843 C.3     1  UNL1        0.0310
      7 C          63.1892   82.8619   13.3326 C.ar    1  UNL1        0.0688
      8 C          62.8131   83.3052   14.7154 C.ar    1  UNL1        0.0197
      9 C          63.0342   84.7290   15.1326 C.ar    1  UNL1        0.0681
     10 N          62.5919   84.9605   16.5471 N.am    1  UNL1       -0.2824
     11 C          62.6376   86.2295   17.3454 C.2     1  UNL1        0.2322
     12 O          62.1149   86.1351   18.7482 O.2     1  UNL1       -0.2744
     13 C          63.1368   87.5805   16.9264 C.3     1  UNL1        0.1309
     14 H          62.2228   84.1757   17.0131 H       1  UNL1        0.1549
     15 C          65.4335   91.3158   14.2744 C.ar    1  UNL1        0.0001
     16 C          64.9471   92.3119   15.2850 C.ar    1  UNL1        0.0000
     17 C          64.0495   91.8695   16.4024 C.ar    1  UNL1        0.0000
     18 C          63.6384   90.4309   16.5093 C.ar    1  UNL1        0.0012
     19 C          64.1248   89.4347   15.4988 C.ar    1  UNL1        0.0140
     20 C          65.0224   89.8772   14.3814 C.ar    1  UNL1        0.0012
     21 C          66.1094   93.7958    9.7585 C.3     1  UNL1        0.0521
     22 C          66.6690   92.9982   10.8991 C.ar    1  UNL1        0.0594
     23 C          65.7714   92.5558   12.0165 C.ar    1  UNL1        0.0147
     24 C          66.3310   91.7583   13.1570 C.ar    1  UNL1        0.0027
     25 C          67.7882   91.4031   13.1802 C.ar    1  UNL1        0.0207
     26 C          68.6858   91.8456   12.0627 C.ar    1  UNL1        0.0984
     27 N          68.1262   92.6431   10.9222 N.ar    1  UNL1       -0.2481
     28 C          62.9680   81.4382   12.9154 C.3     1  UNL1        0.4183
     29 F          62.7469   80.0144   12.4982 F       1  UNL1       -0.1659
     30 F          61.6303   81.8118   12.3491 F       1  UNL1       -0.1659
     31 F          64.3058   81.0644   13.4817 F       1  UNL1       -0.1659
@<TRIPOS>BOND
     1    21    22    1
     2    22    23   ar
     3    23    24   ar
     4    24    15    1
     5    15    16   ar
     6    16    17   ar
     7    17    18   ar
     8    18    19   ar
     9    19     1    1
    10     1     2    2
    11     2     3    1
    12     3     4   ar
    13     4     5   ar
    14     5     6    1
    15     5     7   ar
    16     7    28    1
    17    28    29    1
    18    28    30    1
    19    28    31    1
    20     7     8   ar
    21     8     9   ar
    22     9    10    1
    23    10    11   am
    24    11    12    2
    25    11    13    1
    26    19    20   ar
    27    24    25   ar
    28    25    26   ar
    29    26    27   ar
    30    27    22   ar
    31    20    15   ar
    32    13     1    1
    33     9     3   ar
    34    10    14    1
@<TRIPOS>MOLECULE
*****
 31 34 0 0 0
SMALL
GASTEIGER

@<TRIPOS>ATOM
      1 C          62.4042   87.0185   10.5381 C.2     1  UNL1        0.0681
      2 N          62.3843   86.2927   11.8507 N.2     1  UNL1       -0.2479
      3 C          62.5341   84.8226   12.1089 C.ar    1  UNL1        0.0940
      4 C          62.4539   84.5128   13.5743 C.ar    1  UNL1        0.0160
      5 C          62.5804   83.0955   14.0492 C.ar    1  UNL1       -0.0164
      6 C          62.5002   82.7855   15.5146 C.3     1  UNL1        0.0310
      7 C          62.7869   81.9882   13.0586 C.ar    1  UNL1        0.0688
      8 C          62.8671   82.2982   11.5931 C.ar    1  UNL1        0.0197
      9 C          62.7406   83.7155   11.1183 C.ar    1  UNL1        0.0681
     10 N          62.8485   83.8047    9.6248 N.am    1  UNL1       -0.2824
     11 C          62.7765   85.0233    8.7531 C.2     1  UNL1        0.2322
     12 O          62.9213   84.7794    7.2802 O.2     1  UNL1       -0.2744
     13 C          62.5787   86.4536    9.1596 C.3     1  UNL1        0.1309
     14 H          62.9846   82.9506    9.1546 H       1  UNL1        0.1549
     15 C          63.1808   90.8620   11.1506 C.ar    1  UNL1        0.0001
     16 C          61.8696   91.4809   10.7664 C.ar    1  UNL1        0.0000
     17 C          60.7365   90.6123   10.3060 C.ar    1  UNL1        0.0000
     18 C          60.9148   89.1248   10.2299 C.ar    1  UNL1        0.0012
     19 C          62.2261   88.5060   10.6142 C.ar    1  UNL1        0.0140
     20 C          63.3590   89.3745   11.0745 C.ar    1  UNL1        0.0012
     21 C          66.3803   92.4626   14.9191 C.3     1  UNL1        0.0521
     22 C          65.9136   92.5308   13.4952 C.ar    1  UNL1        0.0594
     23 C          64.7805   91.6623   13.0349 C.ar    1  UNL1        0.0147
     24 C          64.3138   91.7305   11.6110 C.ar    1  UNL1        0.0027
     25 C          64.9800   92.6673   10.6474 C.ar    1  UNL1        0.0207
     26 C          66.1131   93.5359   11.1077 C.ar    1  UNL1        0.0984
     27 N          66.5798   93.4676   12.5316 N.ar    1  UNL1       -0.2481
     28 C          62.9134   80.5710   13.5333 C.3     1  UNL1        0.4183
     29 F          63.0397   79.1537   14.0080 F       1  UNL1       -0.1659
     30 F          64.3998   80.7399   13.6417 F       1  UNL1       -0.1659
     31 F          61.4268   80.4021   13.4249 F       1  UNL1       -0.1659
@<TRIPOS>BOND
     1    21    22    1
     2    22    23   ar
     3    23    24   ar
     4    24    15    1
     5    15    16   ar
     6    16    17   ar
     7    17    18   ar
     8    18    19   ar
     9    19     1    1
    10     1     2    2
    11     2     3    1
    12     3     4   ar
    13     4     5   ar
    14     5     6    1
    15     5     7   ar
    16     7    28    1
    17    28    29    1
    18    28    30    1
    19    28    31    1
    20     7     8   ar
    21     8     9   ar
    22     9    10    1
    23    10    11   am
    24    11    12    2
    25    11    13    1
    26    19    20   ar
    27    24    25   ar
    28    25    26   ar
    29    26    27   ar
    30    27    22   ar
    31    20    15   ar
    32    13     1    1
    33     9     3   ar
    34    10    14    1
@<TRIPOS>MOLECULE
*****
 31 34 0 0 0
SMALL
GASTEIGER

@<TRIPOS>ATOM
      1 C          62.9397   87.4239   12.3963 C.2     1  UNL1        0.0681
      2 N          62.0373   86.9455   11.2977 N.2     1  UNL1       -0.2479
      3 C          61.3972   87.7421   10.1996 C.ar    1  UNL1        0.0940
      4 C          60.5642   86.8722    9.3056 C.ar    1  UNL1        0.0160
      5 C          59.8352   87.4740    8.1409 C.ar    1  UNL1       -0.0164
      6 C          59.0022   86.6042    7.2469 C.3     1  UNL1        0.0310
      7 C          59.9393   88.9457    7.8703 C.ar    1  UNL1        0.0688
      8 C          60.7724   89.8157    8.7644 C.ar    1  UNL1        0.0197
      9 C          61.5013   89.2138    9.9291 C.ar    1  UNL1        0.0681
     10 N          62.2713   90.2524   10.6897 N.am    1  UNL1       -0.2824
     11 C          63.1273   90.0758   11.9087 C.2     1  UNL1        0.2322
     12 O          63.7709   91.3229   12.4382 O.2     1  UNL1       -0.2744
     13 C          63.4247   88.8169   12.6682 C.3     1  UNL1        0.1309
     14 H          62.2062   91.1715   10.3429 H       1  UNL1        0.1549
     15 C          63.4330   83.8986   14.1511 C.ar    1  UNL1        0.0001
     16 C          64.3823   84.2614   15.2543 C.ar    1  UNL1        0.0000
     17 C          64.8508   85.6785   15.4049 C.ar    1  UNL1        0.0000
     18 C          64.3699   86.7326   14.4522 C.ar    1  UNL1        0.0012
     19 C          63.4206   86.3697   13.3490 C.ar    1  UNL1        0.0140
     20 C          62.9521   84.9528   13.1984 C.ar    1  UNL1        0.0012
     21 C          59.6001   80.3915   14.2500 C.3     1  UNL1        0.0521
     22 C          61.0481   80.7280   14.0499 C.ar    1  UNL1        0.0594
     23 C          61.5165   82.1451   14.2005 C.ar    1  UNL1        0.0147
     24 C          62.9645   82.4816   14.0004 C.ar    1  UNL1        0.0027
     25 C          63.9442   81.4012   13.6497 C.ar    1  UNL1        0.0207
     26 C          63.4757   79.9841   13.4991 C.ar    1  UNL1        0.0984
     27 N          62.0277   79.6476   13.6992 N.ar    1  UNL1       -0.2481
     28 C          59.2104   89.5476    6.7057 C.3     1  UNL1        0.4183
     29 F          58.4816   90.1496    5.5410 F       1  UNL1       -0.1659
     30 F          57.9134   89.0226    7.2460 F       1  UNL1       -0.1659
     31 F          60.5075   90.0727    6.1653 F       1  UNL1       -0.1659
@<TRIPOS>BOND
     1    21    22    1
     2    22    23   ar
     3    23    24   ar
     4    24    15    1
     5    15    16   ar
     6    16    17   ar
     7    17    18   ar
     8    18    19   ar
     9    19     1    1
    10     1     2    2
    11     2     3    1
    12     3     4   ar
    13     4     5   ar
    14     5     6    1
    15     5     7   ar
    16     7    28    1
    17    28    29    1
    18    28    30    1
    19    28    31    1
    20     7     8   ar
    21     8     9   ar
    22     9    10    1
    23    10    11   am
    24    11    12    2
    25    11    13    1
    26    19    20   ar
    27    24    25   ar
    28    25    26   ar
    29    26    27   ar
    30    27    22   ar
    31    20    15   ar
    32    13     1    1
    33     9     3   ar
    34    10    14    1
@<TRIPOS>MOLECULE
*****
 31 34 0 0 0
SMALL
GASTEIGER

@<TRIPOS>ATOM
      1 C          63.8220   88.8919   13.2901 C.2     1  UNL1        0.0681
      2 N          64.7366   89.9859   13.7557 N.2     1  UNL1       -0.2479
      3 C          65.0822   91.2726   13.0663 C.ar    1  UNL1        0.0940
      4 C          66.0408   92.0901   13.8804 C.ar    1  UNL1        0.0160
      5 C          66.5158   93.4180   13.3696 C.ar    1  UNL1       -0.0164
      6 C          67.4744   94.2355   14.1836 C.3     1  UNL1        0.0310
      7 C          66.0323   93.9284   12.0445 C.ar    1  UNL1        0.0688
      8 C          65.0736   93.1108   11.2304 C.ar    1  UNL1        0.0197
      9 C          64.5986   91.7829   11.7414 C.ar    1  UNL1        0.0681
     10 N          63.6500   91.1327   10.7783 N.am    1  UNL1       -0.2824
     11 C          62.9506   89.8116   10.9025 C.2     1  UNL1        0.2322
     12 O          62.0565   89.4383    9.7575 O.2     1  UNL1       -0.2744
     13 C          63.0272   88.8143   12.0204 C.3     1  UNL1        0.1309
     14 H          63.4615   91.6402    9.9561 H       1  UNL1        0.1549
     15 C          63.4474   85.1599   14.5873 C.ar    1  UNL1        0.0001
     16 C          63.4081   85.3781   16.0708 C.ar    1  UNL1        0.0000
     17 C          63.5068   86.7675   16.6275 C.ar    1  UNL1        0.0000
     18 C          63.6448   87.9387   15.7005 C.ar    1  UNL1        0.0012
     19 C          63.6840   87.7206   14.2170 C.ar    1  UNL1        0.0140
     20 C          63.5854   86.3312   13.6603 C.ar    1  UNL1        0.0012
     21 C          60.8935   80.6551   14.1576 C.3     1  UNL1        0.0521
     22 C          62.0718   81.5181   13.8158 C.ar    1  UNL1        0.0594
     23 C          62.1705   82.9076   14.3725 C.ar    1  UNL1        0.0147
     24 C          63.3487   83.7706   14.0307 C.ar    1  UNL1        0.0027
     25 C          64.4284   83.2442   13.1322 C.ar    1  UNL1        0.0207
     26 C          64.3298   81.8548   12.5755 C.ar    1  UNL1        0.0984
     27 N          63.1515   80.9918   12.9173 N.ar    1  UNL1       -0.2481
     28 C          66.5072   95.2562   11.5335 C.3     1  UNL1        0.4183
     29 F          66.9822   96.5842   11.0226 F       1  UNL1       -0.1659
     30 F          67.2379   94.5665   10.4200 F       1  UNL1       -0.1659
     31 F          65.7765   95.9461   12.6472 F       1  UNL1       -0.1659
@<TRIPOS>BOND
     1    21    22    1
     2    22    23   ar
     3    23    24   ar
     4    24    15    1
     5    15    16   ar
     6    16    17   ar
     7    17    18   ar
     8    18    19   ar
     9    19     1    1
    10     1     2    2
    11     2     3    1
    12     3     4   ar
    13     4     5   ar
    14     5     6    1
    15     5     7   ar
    16     7    28    1
    17    28    29    1
    18    28    30    1
    19    28    31    1
    20     7     8   ar
    21     8     9   ar
    22     9    10    1
    23    10    11   am
    24    11    12    2
    25    11    13    1
    26    19    20   ar
    27    24    25   ar
    28    25    26   ar
    29    26    27   ar
    30    27    22   ar
    31    20    15   ar
    32    13     1    1
    33     9     3   ar
    34    10    14    1
@<TRIPOS>MOLECULE
*****
 31 34 0 0 0
SMALL
GASTEIGER

@<TRIPOS>ATOM
      1 C          63.5931   88.5224   13.6777 C.2     1  UNL1        0.0681
      2 N          62.8121   88.9205   12.4604 N.2     1  UNL1       -0.2479
      3 C          62.2302   88.0409   11.3936 C.ar    1  UNL1        0.0940
      4 C          61.5198   88.8465   10.3465 C.ar    1  UNL1        0.0160
      5 C          60.8646   88.1573    9.1864 C.ar    1  UNL1       -0.0164
      6 C          60.1543   88.9627    8.1392 C.3     1  UNL1        0.0310
      7 C          60.9199   86.6626    9.0735 C.ar    1  UNL1        0.0688
      8 C          61.6303   85.8570   10.1207 C.ar    1  UNL1        0.0197
      9 C          62.2854   86.5463   11.2808 C.ar    1  UNL1        0.0681
     10 N          62.9362   85.5618   12.2067 N.am    1  UNL1       -0.2824
     11 C          63.6926   85.8290   13.4742 C.2     1  UNL1        0.2322
     12 O          64.2273   84.6186   14.1804 O.2     1  UNL1       -0.2744
     13 C          63.9848   87.1466   14.1288 C.3     1  UNL1        0.1309
     14 H          62.8564   84.6152   11.9483 H       1  UNL1        0.1549
     15 C          65.8418   91.3937   15.2426 C.ar    1  UNL1        0.0001
     16 C          64.9379   91.9028   16.3261 C.ar    1  UNL1        0.0000
     17 C          63.5858   91.2851   16.5267 C.ar    1  UNL1        0.0000
     18 C          63.1375   90.1583   15.6439 C.ar    1  UNL1        0.0012
     19 C          64.0414   89.6492   14.5604 C.ar    1  UNL1        0.0140
     20 C          65.3935   90.2668   14.3598 C.ar    1  UNL1        0.0012
     21 C          69.4160   94.9268   16.5627 C.3     1  UNL1        0.0521
     22 C          68.9810   93.7779   15.7020 C.ar    1  UNL1        0.0594
     23 C          67.6288   93.1602   15.9027 C.ar    1  UNL1        0.0147
     24 C          67.1938   92.0114   15.0420 C.ar    1  UNL1        0.0027
     25 C          68.1109   91.4801   13.9805 C.ar    1  UNL1        0.0207
     26 C          69.4631   92.0978   13.7798 C.ar    1  UNL1        0.0984
     27 N          69.8981   93.2466   14.6405 N.ar    1  UNL1       -0.2481
     28 C          60.2648   85.9733    7.9135 C.3     1  UNL1        0.4183
     29 F          59.6098   85.2839    6.7534 F       1  UNL1       -0.1659
     30 F          58.9168   86.3657    8.4414 F       1  UNL1       -0.1659
     31 F          61.6128   85.5808    7.3854 F       1  UNL1       -0.1659
@<TRIPOS>BOND
     1    21    22    1
     2    22    23   ar
     3    23    24   ar
     4    24    15    1
     5    15    16   ar
     6    16    17   ar
     7    17    18   ar
     8    18    19   ar
     9    19     1    1
    10     1     2    2
    11     2     3    1
    12     3     4   ar
    13     4     5   ar
    14     5     6    1
    15     5     7   ar
    16     7    28    1
    17    28    29    1
    18    28    30    1
    19    28    31    1
    20     7     8   ar
    21     8     9   ar
    22     9    10    1
    23    10    11   am
    24    11    12    2
    25    11    13    1
    26    19    20   ar
    27    24    25   ar
    28    25    26   ar
    29    26    27   ar
    30    27    22   ar
    31    20    15   ar
    32    13     1    1
    33     9     3   ar
    34    10    14    1
