@<TRIPOS>MOLECULE
*****
 26 29 0 0 0
SMALL
GASTEIGER

@<TRIPOS>ATOM
      1 C          65.2311   91.6802   13.8938 C.ar    1  UNL1        0.0504
      2 C          64.8911   91.3775   15.3230 C.ar    1  UNL1        0.0441
      3 C          63.7929   90.4074   15.6433 C.ar    1  UNL1        0.1414
      4 F          63.4528   90.1046   17.0726 F       1  UNL1       -0.2041
      5 C          63.0346   89.7400   14.5345 C.ar    1  UNL1        0.0317
      6 C          63.3746   90.0427   13.1052 C.ar    1  UNL1        0.0273
      7 C          64.4729   91.0128   12.7849 C.ar    1  UNL1        0.0167
      8 C          62.6163   89.3753   11.9963 C.ar    1  UNL1        0.1108
      9 N          62.5711   87.9013   11.7217 N.ar    1  UNL1       -0.2383
     10 C          61.6970   87.6797   10.5230 C.ar    1  UNL1        0.0878
     11 C          61.2878   86.4333    9.7959 C.ar    1  UNL1        0.0196
     12 C          60.3837   86.5238    8.6024 C.ar    1  UNL1        0.0016
     13 C          59.8887   87.8608    8.1362 C.ar    1  UNL1        0.0006
     14 C          60.2979   89.1073    8.8634 C.ar    1  UNL1        0.0080
     15 C          61.2020   89.0168   10.0568 C.ar    1  UNL1        0.0485
     16 S          61.7702   90.0646   10.9673 S.2     1  UNL1       -0.0665
     17 N          66.3294   92.6504   13.5734 N.pl3   1  UNL1       -0.3035
     18 C          67.8750   93.4554   15.5004 C.3     1  UNL1        0.0232
     19 C          67.6343   92.5758   14.3094 C.3     1  UNL1        0.0911
     20 C          66.1227   93.6951   12.5170 C.3     1  UNL1        0.1193
     21 C          66.8326   93.5812   11.2006 C.ar    1  UNL1        0.0168
     22 C          67.4648   92.2814   10.7993 C.ar    1  UNL1        0.0005
     23 C          68.1747   92.1676    9.4829 C.ar    1  UNL1        0.0204
     24 C          68.2523   93.3534    8.5676 C.ar    1  UNL1        0.0989
     25 N          67.6202   94.6532    8.9688 N.ar    1  UNL1       -0.2426
     26 C          66.9103   94.7671   10.2853 C.ar    1  UNL1        0.0962
@<TRIPOS>BOND
     1    18    19    1
     2    19    17    1
     3    17    20    1
     4    20    21    1
     5    21    22   ar
     6    22    23   ar
     7    23    24   ar
     8    24    25   ar
     9    25    26   ar
    10    17     1    1
    11     1     2   ar
    12     2     3   ar
    13     3     4    1
    14     3     5   ar
    15     5     6   ar
    16     6     8    1
    17     8     9   ar
    18     9    10   ar
    19    10    11   ar
    20    11    12   ar
    21    12    13   ar
    22    13    14   ar
    23    14    15   ar
    24    15    16   ar
    25     6     7   ar
    26    26    21   ar
    27     7     1   ar
    28    16     8   ar
    29    15    10   ar
@<TRIPOS>MOLECULE
*****
 26 29 0 0 0
SMALL
GASTEIGER

@<TRIPOS>ATOM
      1 C          63.5398   89.1542   12.8433 C.ar    1  UNL1        0.0504
      2 C          62.9184   89.7494   11.6146 C.ar    1  UNL1        0.0441
      3 C          62.2391   88.8630   10.6132 C.ar    1  UNL1        0.1414
      4 F          61.6177   89.4581    9.3845 F       1  UNL1       -0.2041
      5 C          62.1812   87.3814   10.8405 C.ar    1  UNL1        0.0317
      6 C          62.8025   86.7863   12.0692 C.ar    1  UNL1        0.0273
      7 C          63.4818   87.6727   13.0706 C.ar    1  UNL1        0.0167
      8 C          62.7446   85.3047   12.2965 C.ar    1  UNL1        0.1108
      9 N          62.4239   84.6237   13.5939 N.ar    1  UNL1       -0.2383
     10 C          62.4783   83.1421   13.3656 C.ar    1  UNL1        0.0878
     11 C          62.2509   81.9764   14.2817 C.ar    1  UNL1        0.0196
     12 C          62.3779   80.5761   13.7593 C.ar    1  UNL1        0.0016
     13 C          62.7323   80.3415   12.3208 C.ar    1  UNL1        0.0006
     14 C          62.9596   81.5073   11.4046 C.ar    1  UNL1        0.0080
     15 C          62.8326   82.9076   11.9271 C.ar    1  UNL1        0.0485
     16 S          62.9972   84.2441   11.2664 S.2     1  UNL1       -0.0665
     17 N          64.2191   90.0407   13.8447 N.pl3   1  UNL1       -0.3035
     18 C          63.1870   89.7395   16.2099 C.3     1  UNL1        0.0232
     19 C          64.3491   89.5979   15.2719 C.3     1  UNL1        0.0911
     20 C          64.7685   91.3699   13.4188 C.3     1  UNL1        0.1193
     21 C          66.0171   91.9042   14.0555 C.ar    1  UNL1        0.0168
     22 C          65.9762   92.4336   15.4584 C.ar    1  UNL1        0.0005
     23 C          67.2249   92.9679   16.0951 C.ar    1  UNL1        0.0204
     24 C          68.5144   92.9728   15.3290 C.ar    1  UNL1        0.0989
     25 N          68.5554   92.4434   13.9261 N.ar    1  UNL1       -0.2426
     26 C          67.3067   91.9091   13.2893 C.ar    1  UNL1        0.0962
@<TRIPOS>BOND
     1    18    19    1
     2    19    17    1
     3    17    20    1
     4    20    21    1
     5    21    22   ar
     6    22    23   ar
     7    23    24   ar
     8    24    25   ar
     9    25    26   ar
    10    17     1    1
    11     1     2   ar
    12     2     3   ar
    13     3     4    1
    14     3     5   ar
    15     5     6   ar
    16     6     8    1
    17     8     9   ar
    18     9    10   ar
    19    10    11   ar
    20    11    12   ar
    21    12    13   ar
    22    13    14   ar
    23    14    15   ar
    24    15    16   ar
    25     6     7   ar
    26    26    21   ar
    27     7     1   ar
    28    16     8   ar
    29    15    10   ar
@<TRIPOS>MOLECULE
*****
 26 29 0 0 0
SMALL
GASTEIGER

@<TRIPOS>ATOM
      1 C          63.4111   83.8271   12.8339 C.ar    1  UNL1        0.0504
      2 C          64.2342   82.8473   12.0513 C.ar    1  UNL1        0.0441
      3 C          64.2625   82.9194   10.5534 C.ar    1  UNL1        0.1414
      4 F          65.0856   81.9396    9.7707 F       1  UNL1       -0.2041
      5 C          63.4677   83.9713    9.8379 C.ar    1  UNL1        0.0317
      6 C          62.6447   84.9512   10.6205 C.ar    1  UNL1        0.0273
      7 C          62.6164   84.8791   12.1185 C.ar    1  UNL1        0.0167
      8 C          61.8499   86.0031    9.9051 C.ar    1  UNL1        0.1108
      9 N          60.9129   85.7715    8.7569 N.ar    1  UNL1       -0.2383
     10 C          60.3365   87.0966    8.3544 C.ar    1  UNL1        0.0878
     11 C          59.3579   87.4823    7.2851 C.ar    1  UNL1        0.0196
     12 C          58.9600   88.9185    7.1154 C.ar    1  UNL1        0.0016
     13 C          59.5407   89.9691    8.0149 C.ar    1  UNL1        0.0006
     14 C          60.5193   89.5833    9.0842 C.ar    1  UNL1        0.0080
     15 C          60.9172   88.1471    9.2540 C.ar    1  UNL1        0.0485
     16 S          61.8526   87.4713   10.2123 S.2     1  UNL1       -0.0665
     17 N          63.3828   83.7551   14.3319 N.pl3   1  UNL1       -0.3035
     18 C          61.8236   81.6770   14.3042 C.3     1  UNL1        0.0232
     19 C          62.3905   82.8663   15.0214 C.3     1  UNL1        0.0911
     20 C          64.3468   84.5718   15.1404 C.3     1  UNL1        0.1193
     21 C          63.9580   85.9418   15.6114 C.ar    1  UNL1        0.0168
     22 C          63.2199   86.1083   16.9067 C.ar    1  UNL1        0.0005
     23 C          62.8311   87.4783   17.3777 C.ar    1  UNL1        0.0204
     24 C          63.1805   88.6819   16.5535 C.ar    1  UNL1        0.0989
     25 N          63.9186   88.5155   15.2584 N.ar    1  UNL1       -0.2426
     26 C          64.3074   87.1454   14.7873 C.ar    1  UNL1        0.0962
@<TRIPOS>BOND
     1    18    19    1
     2    19    17    1
     3    17    20    1
     4    20    21    1
     5    21    22   ar
     6    22    23   ar
     7    23    24   ar
     8    24    25   ar
     9    25    26   ar
    10    17     1    1
    11     1     2   ar
    12     2     3   ar
    13     3     4    1
    14     3     5   ar
    15     5     6   ar
    16     6     8    1
    17     8     9   ar
    18     9    10   ar
    19    10    11   ar
    20    11    12   ar
    21    12    13   ar
    22    13    14   ar
    23    14    15   ar
    24    15    16   ar
    25     6     7   ar
    26    26    21   ar
    27     7     1   ar
    28    16     8   ar
    29    15    10   ar
@<TRIPOS>MOLECULE
*****
 26 29 0 0 0
SMALL
GASTEIGER

@<TRIPOS>ATOM
      1 C          64.7512   90.8981   13.3700 C.ar    1  UNL1        0.0504
      2 C          64.9925   89.9331   14.4926 C.ar    1  UNL1        0.0441
      3 C          64.3147   88.5950   14.4901 C.ar    1  UNL1        0.1414
      4 F          64.5560   87.6298   15.6128 F       1  UNL1       -0.2041
      5 C          63.3956   88.2219   13.3649 C.ar    1  UNL1        0.0317
      6 C          63.1543   89.1869   12.2422 C.ar    1  UNL1        0.0273
      7 C          63.8321   90.5250   12.2448 C.ar    1  UNL1        0.0167
      8 C          62.2352   88.8139   11.1170 C.ar    1  UNL1        0.1108
      9 N          61.5626   89.7677   10.1748 N.ar    1  UNL1       -0.2383
     10 C          60.7390   88.9649    9.2119 C.ar    1  UNL1        0.0878
     11 C          59.8613   89.3668    8.0639 C.ar    1  UNL1        0.0196
     12 C          59.1471   88.3187    7.2631 C.ar    1  UNL1        0.0016
     13 C          59.3106   86.8687    7.6102 C.ar    1  UNL1        0.0006
     14 C          60.1884   86.4667    8.7582 C.ar    1  UNL1        0.0080
     15 C          60.9025   87.5148    9.5591 C.ar    1  UNL1        0.0485
     16 S          61.8272   87.4215   10.7365 S.2     1  UNL1       -0.0665
     17 N          65.4290   92.2363   13.3725 N.pl3   1  UNL1       -0.3035
     18 C          67.6109   92.2319   14.7828 C.3     1  UNL1        0.0232
     19 C          66.1958   92.6864   14.5805 C.3     1  UNL1        0.0911
     20 C          65.3399   93.1243   12.1669 C.3     1  UNL1        0.1193
     21 C          66.4403   93.1177   11.1476 C.ar    1  UNL1        0.0168
     22 C          66.4343   94.1193   10.0309 C.ar    1  UNL1        0.0005
     23 C          67.5347   94.1127    9.0115 C.ar    1  UNL1        0.0204
     24 C          68.6412   93.1046    9.1089 C.ar    1  UNL1        0.0989
     25 N          68.6472   92.1031   10.2255 N.ar    1  UNL1       -0.2426
     26 C          67.5468   92.1096   11.2449 C.ar    1  UNL1        0.0962
@<TRIPOS>BOND
     1    18    19    1
     2    19    17    1
     3    17    20    1
     4    20    21    1
     5    21    22   ar
     6    22    23   ar
     7    23    24   ar
     8    24    25   ar
     9    25    26   ar
    10    17     1    1
    11     1     2   ar
    12     2     3   ar
    13     3     4    1
    14     3     5   ar
    15     5     6   ar
    16     6     8    1
    17     8     9   ar
    18     9    10   ar
    19    10    11   ar
    20    11    12   ar
    21    12    13   ar
    22    13    14   ar
    23    14    15   ar
    24    15    16   ar
    25     6     7   ar
    26    26    21   ar
    27     7     1   ar
    28    16     8   ar
    29    15    10   ar
@<TRIPOS>MOLECULE
*****
 26 29 0 0 0
SMALL
GASTEIGER

@<TRIPOS>ATOM
      1 C          61.2336   87.7378   10.2185 C.ar    1  UNL1        0.0504
      2 C          59.8420   87.9700   10.7277 C.ar    1  UNL1        0.0441
      3 C          59.5936   89.0019   11.7875 C.ar    1  UNL1        0.1414
      4 F          58.2018   89.2341   12.2968 F       1  UNL1       -0.2041
      5 C          60.7368   89.8018   12.3382 C.ar    1  UNL1        0.0317
      6 C          62.1285   89.5697   11.8289 C.ar    1  UNL1        0.0273
      7 C          62.3769   88.5377   10.7691 C.ar    1  UNL1        0.0167
      8 C          63.2718   90.3695   12.3796 C.ar    1  UNL1        0.1108
      9 N          63.9804   91.4915   11.6803 N.ar    1  UNL1       -0.2383
     10 C          65.0537   92.0032   12.5947 C.ar    1  UNL1        0.0878
     11 C          66.0664   93.0988   12.4393 C.ar    1  UNL1        0.0196
     12 C          67.0339   93.3886   13.5483 C.ar    1  UNL1        0.0016
     13 C          66.9886   92.5828   14.8127 C.ar    1  UNL1        0.0006
     14 C          65.9759   91.4873   14.9681 C.ar    1  UNL1        0.0080
     15 C          65.0085   91.1975   13.8591 C.ar    1  UNL1        0.0485
     16 S          63.9072   90.1878   13.7261 S.2     1  UNL1       -0.0665
     17 N          61.4821   86.7058    9.1586 N.pl3   1  UNL1       -0.3035
     18 C          60.6389   85.3235    7.1268 C.3     1  UNL1        0.0232
     19 C          60.4298   86.4202    8.1286 C.3     1  UNL1        0.0911
     20 C          62.7828   85.9594    9.1289 C.3     1  UNL1        0.1193
     21 C          63.0089   84.8089   10.0643 C.ar    1  UNL1        0.0168
     22 C          63.8566   83.6483    9.6346 C.ar    1  UNL1        0.0005
     23 C          64.0827   82.4977   10.5700 C.ar    1  UNL1        0.0204
     24 C          63.4611   82.5077   11.9352 C.ar    1  UNL1        0.0989
     25 N          62.6135   83.6682   12.3649 N.ar    1  UNL1       -0.2426
     26 C          62.3874   84.8188   11.4294 C.ar    1  UNL1        0.0962
@<TRIPOS>BOND
     1    18    19    1
     2    19    17    1
     3    17    20    1
     4    20    21    1
     5    21    22   ar
     6    22    23   ar
     7    23    24   ar
     8    24    25   ar
     9    25    26   ar
    10    17     1    1
    11     1     2   ar
    12     2     3   ar
    13     3     4    1
    14     3     5   ar
    15     5     6   ar
    16     6     8    1
    17     8     9   ar
    18     9    10   ar
    19    10    11   ar
    20    11    12   ar
    21    12    13   ar
    22    13    14   ar
    23    14    15   ar
    24    15    16   ar
    25     6     7   ar
    26    26    21   ar
    27     7     1   ar
    28    16     8   ar
    29    15    10   ar
@<TRIPOS>MOLECULE
*****
 26 29 0 0 0
SMALL
GASTEIGER

@<TRIPOS>ATOM
      1 C          63.4991   85.6942   15.4294 C.ar    1  UNL1        0.0504
      2 C          63.0584   85.8827   16.8507 C.ar    1  UNL1        0.0441
      3 C          63.0300   87.2570   17.4511 C.ar    1  UNL1        0.1414
      4 F          62.5892   87.4456   18.8725 F       1  UNL1       -0.2041
      5 C          63.4422   88.4428   16.6301 C.ar    1  UNL1        0.0317
      6 C          63.8829   88.2543   15.2088 C.ar    1  UNL1        0.0273
      7 C          63.9114   86.8800   14.6084 C.ar    1  UNL1        0.0167
      8 C          64.2951   89.4401   14.3878 C.ar    1  UNL1        0.1108
      9 N          65.2909   90.4875   14.7897 N.ar    1  UNL1       -0.2383
     10 C          65.3952   91.4814   13.6711 C.ar    1  UNL1        0.0878
     11 C          66.2178   92.7249   13.5068 C.ar    1  UNL1        0.0196
     12 C          66.1092   93.5352   12.2492 C.ar    1  UNL1        0.0016
     13 C          65.1779   93.1021   11.1560 C.ar    1  UNL1        0.0006
     14 C          64.3553   91.8586   11.3203 C.ar    1  UNL1        0.0080
     15 C          64.4639   91.0483   12.5779 C.ar    1  UNL1        0.0485
     16 S          63.7841   89.7867   13.0208 S.2     1  UNL1       -0.0665
     17 N          63.5276   84.3199   14.8289 N.pl3   1  UNL1       -0.3035
     18 C          62.1790   82.1359   14.4271 C.3     1  UNL1        0.0232
     19 C          62.5868   83.2637   15.3281 C.3     1  UNL1        0.0911
     20 C          64.4970   84.0018   13.7293 C.3     1  UNL1        0.1193
     21 C          64.0507   84.0525   12.2982 C.ar    1  UNL1        0.0168
     22 C          64.6247   83.0921   11.2990 C.ar    1  UNL1        0.0005
     23 C          64.1784   83.1428    9.8679 C.ar    1  UNL1        0.0204
     24 C          63.1581   84.1539    9.4358 C.ar    1  UNL1        0.0989
     25 N          62.5841   85.1143   10.4348 N.ar    1  UNL1       -0.2426
     26 C          63.0304   85.0636   11.8661 C.ar    1  UNL1        0.0962
@<TRIPOS>BOND
     1    18    19    1
     2    19    17    1
     3    17    20    1
     4    20    21    1
     5    21    22   ar
     6    22    23   ar
     7    23    24   ar
     8    24    25   ar
     9    25    26   ar
    10    17     1    1
    11     1     2   ar
    12     2     3   ar
    13     3     4    1
    14     3     5   ar
    15     5     6   ar
    16     6     8    1
    17     8     9   ar
    18     9    10   ar
    19    10    11   ar
    20    11    12   ar
    21    12    13   ar
    22    13    14   ar
    23    14    15   ar
    24    15    16   ar
    25     6     7   ar
    26    26    21   ar
    27     7     1   ar
    28    16     8   ar
    29    15    10   ar
@<TRIPOS>MOLECULE
*****
 26 29 0 0 0
SMALL
GASTEIGER

@<TRIPOS>ATOM
      1 C          64.2956   90.7193   13.3176 C.ar    1  UNL1        0.0504
      2 C          64.0898   91.2114   14.7195 C.ar    1  UNL1        0.0441
      3 C          63.7624   90.2402   15.8147 C.ar    1  UNL1        0.1414
      4 F          63.5566   90.7323   17.2168 F       1  UNL1       -0.2041
      5 C          63.6407   88.7770   15.5080 C.ar    1  UNL1        0.0317
      6 C          63.8465   88.2849   14.1061 C.ar    1  UNL1        0.0273
      7 C          64.1740   89.2561   13.0109 C.ar    1  UNL1        0.0167
      8 C          63.7249   86.8216   13.7993 C.ar    1  UNL1        0.1108
      9 N          63.0699   86.2261   12.5884 N.ar    1  UNL1       -0.2383
     10 C          63.1771   84.7334   12.6904 C.ar    1  UNL1        0.0878
     11 C          62.7111   83.6297   11.7878 C.ar    1  UNL1        0.0196
     12 C          62.9664   82.1990   12.1591 C.ar    1  UNL1        0.0016
     13 C          63.6876   81.8720   13.4331 C.ar    1  UNL1        0.0006
     14 C          64.1536   82.9757   14.3357 C.ar    1  UNL1        0.0080
     15 C          63.8983   84.4064   13.9643 C.ar    1  UNL1        0.0485
     16 S          64.2368   85.6970   14.6497 S.2     1  UNL1       -0.0665
     17 N          64.6231   91.6905   12.2223 N.pl3   1  UNL1       -0.3035
     18 C          62.5872   90.8872   10.8223 C.3     1  UNL1        0.0232
     19 C          63.8934   91.6192   10.9137 C.3     1  UNL1        0.0911
     20 C          65.6803   92.7330   12.4356 C.3     1  UNL1        0.1193
     21 C          66.4387   93.2828   11.2641 C.ar    1  UNL1        0.0168
     22 C          67.3689   92.3963   10.4900 C.ar    1  UNL1        0.0005
     23 C          68.1273   92.9461    9.3185 C.ar    1  UNL1        0.0204
     24 C          67.9557   94.3822    8.9210 C.ar    1  UNL1        0.0989
     25 N          67.0257   95.2687    9.6951 N.ar    1  UNL1       -0.2426
     26 C          66.2672   94.7190   10.8667 C.ar    1  UNL1        0.0962
@<TRIPOS>BOND
     1    18    19    1
     2    19    17    1
     3    17    20    1
     4    20    21    1
     5    21    22   ar
     6    22    23   ar
     7    23    24   ar
     8    24    25   ar
     9    25    26   ar
    10    17     1    1
    11     1     2   ar
    12     2     3   ar
    13     3     4    1
    14     3     5   ar
    15     5     6   ar
    16     6     8    1
    17     8     9   ar
    18     9    10   ar
    19    10    11   ar
    20    11    12   ar
    21    12    13   ar
    22    13    14   ar
    23    14    15   ar
    24    15    16   ar
    25     6     7   ar
    26    26    21   ar
    27     7     1   ar
    28    16     8   ar
    29    15    10   ar
@<TRIPOS>MOLECULE
*****
 26 29 0 0 0
SMALL
GASTEIGER

@<TRIPOS>ATOM
      1 C          63.2816   89.9423   12.0738 C.ar    1  UNL1        0.0504
      2 C          62.1844   90.3799   11.1493 C.ar    1  UNL1        0.0441
      3 C          61.2755   89.3607   10.5289 C.ar    1  UNL1        0.1414
      4 F          60.1783   89.7982    9.6043 F       1  UNL1       -0.2041
      5 C          61.4636   87.9039   10.8330 C.ar    1  UNL1        0.0317
      6 C          62.5608   87.4664   11.7575 C.ar    1  UNL1        0.0273
      7 C          63.4697   88.4856   12.3779 C.ar    1  UNL1        0.0167
      8 C          62.7490   86.0096   12.0616 C.ar    1  UNL1        0.1108
      9 N          62.3882   84.8668   11.1595 N.ar    1  UNL1       -0.2383
     10 C          62.7472   83.5908   11.8615 C.ar    1  UNL1        0.0878
     11 C          62.6188   82.1522   11.4569 C.ar    1  UNL1        0.0196
     12 C          63.0731   81.0677   12.3883 C.ar    1  UNL1        0.0016
     13 C          63.6558   81.4219   13.7243 C.ar    1  UNL1        0.0006
     14 C          63.7842   82.8605   14.1290 C.ar    1  UNL1        0.0080
     15 C          63.3299   83.9450   13.1976 C.ar    1  UNL1        0.0485
     16 S          63.3309   85.4399   13.3212 S.2     1  UNL1       -0.0665
     17 N          64.1906   90.9615   12.6943 N.pl3   1  UNL1       -0.3035
     18 C          65.2175   92.3374   10.7442 C.3     1  UNL1        0.0232
     19 C          64.4180   92.2779   12.0121 C.3     1  UNL1        0.0911
     20 C          64.8722   90.6643   13.9970 C.3     1  UNL1        0.1193
     21 C          66.0489   91.4863   14.4324 C.ar    1  UNL1        0.0168
     22 C          65.9967   92.2447   15.7256 C.ar    1  UNL1        0.0005
     23 C          67.1735   93.0667   16.1610 C.ar    1  UNL1        0.0204
     24 C          68.4024   93.1303   15.3033 C.ar    1  UNL1        0.0989
     25 N          68.4547   92.3720   14.0102 N.ar    1  UNL1       -0.2426
     26 C          67.2779   91.5500   13.5747 C.ar    1  UNL1        0.0962
@<TRIPOS>BOND
     1    18    19    1
     2    19    17    1
     3    17    20    1
     4    20    21    1
     5    21    22   ar
     6    22    23   ar
     7    23    24   ar
     8    24    25   ar
     9    25    26   ar
    10    17     1    1
    11     1     2   ar
    12     2     3   ar
    13     3     4    1
    14     3     5   ar
    15     5     6   ar
    16     6     8    1
    17     8     9   ar
    18     9    10   ar
    19    10    11   ar
    20    11    12   ar
    21    12    13   ar
    22    13    14   ar
    23    14    15   ar
    24    15    16   ar
    25     6     7   ar
    26    26    21   ar
    27     7     1   ar
    28    16     8   ar
    29    15    10   ar
@<TRIPOS>MOLECULE
*****
 26 29 0 0 0
SMALL
GASTEIGER

@<TRIPOS>ATOM
      1 C          64.0921   86.9309   14.2902 C.ar    1  UNL1        0.0504
      2 C          64.6596   88.2455   14.7369 C.ar    1  UNL1        0.0441
      3 C          64.3494   89.4961   13.9689 C.ar    1  UNL1        0.1414
      4 F          64.9169   90.8108   14.4156 F       1  UNL1       -0.2041
      5 C          63.4716   89.4320   12.7543 C.ar    1  UNL1        0.0317
      6 C          62.9040   88.1174   12.3076 C.ar    1  UNL1        0.0273
      7 C          63.2143   86.8668   13.0755 C.ar    1  UNL1        0.0167
      8 C          62.0262   88.0533   11.0930 C.ar    1  UNL1        0.1108
      9 N          61.5320   89.2263   10.2994 N.ar    1  UNL1       -0.2383
     10 C          60.6889   88.7030    9.1746 C.ar    1  UNL1        0.0878
     11 C          59.9422   89.3958    8.0735 C.ar    1  UNL1        0.0196
     12 C          59.1685   88.5920    7.0708 C.ar    1  UNL1        0.0016
     13 C          59.1416   87.0955    7.1692 C.ar    1  UNL1        0.0006
     14 C          59.8883   86.4027    8.2703 C.ar    1  UNL1        0.0080
     15 C          60.6619   87.2065    9.2730 C.ar    1  UNL1        0.0485
     16 S          61.4884   86.8050   10.4586 S.2     1  UNL1       -0.0665
     17 N          64.4023   85.6802   15.0581 N.pl3   1  UNL1       -0.3035
     18 C          62.6857   85.9661   16.9873 C.3     1  UNL1        0.0232
     19 C          64.0592   85.5905   16.5156 C.3     1  UNL1        0.0911
     20 C          65.0557   84.5194   14.3686 C.3     1  UNL1        0.1193
     21 C          64.2170   83.4000   13.8268 C.ar    1  UNL1        0.0168
     22 C          64.1777   83.1391   12.3501 C.ar    1  UNL1        0.0005
     23 C          63.3390   82.0197   11.8084 C.ar    1  UNL1        0.0204
     24 C          62.5395   81.1613   12.7432 C.ar    1  UNL1        0.0989
     25 N          62.5788   81.4221   14.2198 N.ar    1  UNL1       -0.2426
     26 C          63.4176   82.5415   14.7616 C.ar    1  UNL1        0.0962
@<TRIPOS>BOND
     1    18    19    1
     2    19    17    1
     3    17    20    1
     4    20    21    1
     5    21    22   ar
     6    22    23   ar
     7    23    24   ar
     8    24    25   ar
     9    25    26   ar
    10    17     1    1
    11     1     2   ar
    12     2     3   ar
    13     3     4    1
    14     3     5   ar
    15     5     6   ar
    16     6     8    1
    17     8     9   ar
    18     9    10   ar
    19    10    11   ar
    20    11    12   ar
    21    12    13   ar
    22    13    14   ar
    23    14    15   ar
    24    15    16   ar
    25     6     7   ar
    26    26    21   ar
    27     7     1   ar
    28    16     8   ar
    29    15    10   ar
