@<TRIPOS>MOLECULE
*****
 41 44 0 0 0
SMALL
GASTEIGER

@<TRIPOS>ATOM
      1 C          63.8401   87.0638   13.6771 C.ar    1  UNL1        0.0732
      2 C          64.1432   86.6944   15.0990 C.ar    1  UNL1        0.0212
      3 C          63.5743   85.4361   15.6847 C.ar    1  UNL1        0.0590
      4 C          62.7023   84.5471   14.8484 C.ar    1  UNL1        0.2251
      5 N          62.3992   84.9164   13.4265 N.ar    1  UNL1       -0.2058
      6 C          62.9681   86.1748   12.8409 C.ar    1  UNL1        0.1509
      7 C          63.7752   89.6462   13.3998 C.2     1  UNL1        0.2495
      8 O          62.5725   89.7120   14.2937 O.2     1  UNL1       -0.2698
      9 N          64.4090   88.3221   13.0914 N.am    1  UNL1       -0.2791
     10 H          65.1984   88.2789   12.5047 H       1  UNL1        0.1552
     11 C          65.4819   93.4212   11.6429 C.ar    1  UNL1        0.0366
     12 C          64.5497   92.5710   10.8315 C.ar    1  UNL1        0.0009
     13 C          63.9807   91.3127   11.4172 C.ar    1  UNL1        0.0044
     14 C          64.3441   90.9045   12.8141 C.ar    1  UNL1        0.0537
     15 C          65.2763   91.7547   13.6254 C.ar    1  UNL1        0.0042
     16 C          65.6396   91.3465   15.0223 C.ar    1  UNL1        0.0001
     17 C          66.5718   92.1967   15.8337 C.ar    1  UNL1        0.0000
     18 C          67.1407   93.4550   15.2480 C.ar    1  UNL1       -0.0000
     19 C          66.7774   93.8632   13.8510 C.ar    1  UNL1       -0.0002
     20 C          65.8452   93.0130   13.0398 C.ar    1  UNL1        0.0010
     21 C          66.0508   94.6795   11.0572 C.3     1  UNL1        0.2826
     22 C          67.0426   95.6100    8.8435 C.3     1  UNL1        0.3201
     23 S          67.0642   94.6019    9.9540 S.O     1  UNL1        0.0405
     24 O          68.0992   93.5163    9.9614 O.co2   1  UNL1       -0.6809
     25 C          62.6650   86.5441   11.4189 C.2     1  UNL1        0.2649
     26 O          62.3889   87.9735   11.0579 O.2     1  UNL1       -0.2684
     27 N          62.6381   85.4839   10.3581 N.am    1  UNL1       -0.2996
     28 H          62.8193   84.5457   10.5951 H       1  UNL1        0.1498
     29 C          62.3350   85.8533    8.9363 C.3     1  UNL1        0.0897
     30 C          60.9422   86.2495    8.5449 C.3     1  UNL1        0.0196
     31 C          60.0046   85.8737    7.4360 C.3     1  UNL1        0.0017
     32 C          58.9725   86.8099    7.9913 C.3     1  UNL1        0.0001
     33 C          59.9101   87.1857    9.1002 C.3     1  UNL1        0.0017
     34 O          62.1334   83.2888   15.4340 O.3     1  UNL1       -0.4575
     35 C          61.9798   82.0661   14.5787 C.3     1  UNL1        0.2390
     36 C          63.1908   81.4076   13.9872 C.3     1  UNL1        0.1895
     37 O          63.1370   80.8501   12.5957 O.3     1  UNL1       -0.3471
     38 C          62.8694   81.7595   11.4332 C.3     1  UNL1        0.1739
     39 C          64.0065   82.2474   10.5854 C.3     1  UNL1        0.1692
     40 O          64.9965   83.2238   11.1481 O.3     1  UNL1       -0.3794
     41 H          64.5529   84.0678   11.3259 H       1  UNL1        0.2105
@<TRIPOS>UNITY_ATOM_ATTR
23 1
charge 1
24 1
charge -1
@<TRIPOS>BOND
     1    22    23    1
     2    23    24    2
     3    23    21    1
     4    21    11    1
     5    11    12   ar
     6    12    13   ar
     7    13    14   ar
     8    14     7    1
     9     7     8    2
    10     7     9   am
    11     9     1    1
    12     1     2   ar
    13     2     3   ar
    14     3     4   ar
    15     4    34    1
    16    34    35    1
    17    35    36    1
    18    36    37    1
    19    37    38    1
    20    38    39    1
    21    39    40    1
    22     4     5   ar
    23     5     6   ar
    24     6    25    1
    25    25    26    2
    26    25    27   am
    27    27    29    1
    28    29    30    1
    29    30    31    1
    30    31    32    1
    31    32    33    1
    32    14    15   ar
    33    15    16   ar
    34    16    17   ar
    35    17    18   ar
    36    18    19   ar
    37    19    20   ar
    38    20    11   ar
    39     6     1   ar
    40    33    30    1
    41    20    15   ar
    42     9    10    1
    43    40    41    1
    44    27    28    1
@<TRIPOS>MOLECULE
*****
 41 44 0 0 0
SMALL
GASTEIGER

@<TRIPOS>ATOM
      1 C          63.6982   85.8367   13.7284 C.ar    1  UNL1        0.0732
      2 C          64.2693   85.1724   14.9461 C.ar    1  UNL1        0.0212
      3 C          63.7852   83.8129   15.3554 C.ar    1  UNL1        0.0590
      4 C          62.7301   83.1177   14.5470 C.ar    1  UNL1        0.2251
      5 N          62.1590   83.7820   13.3294 N.ar    1  UNL1       -0.2058
      6 C          62.6431   85.1415   12.9201 C.ar    1  UNL1        0.1509
      7 C          64.0213   88.3613   14.2502 C.2     1  UNL1        0.2495
      8 O          63.3763   88.1668   15.5904 O.2     1  UNL1       -0.2698
      9 N          64.1822   87.1961   13.3192 N.am    1  UNL1       -0.2791
     10 H          64.6055   87.3237   12.4395 H       1  UNL1        0.1552
     11 C          65.4734   92.4397   13.0224 C.ar    1  UNL1        0.0366
     12 C          65.9256   91.8424   14.3219 C.ar    1  UNL1        0.0009
     13 C          65.4416   90.4829   14.7312 C.ar    1  UNL1        0.0044
     14 C          64.5053   89.7207   13.8409 C.ar    1  UNL1        0.0537
     15 C          64.0532   90.3180   12.5414 C.ar    1  UNL1        0.0042
     16 C          63.1170   89.5558   11.6512 C.ar    1  UNL1        0.0001
     17 C          62.6648   90.1531   10.3516 C.ar    1  UNL1        0.0000
     18 C          63.1489   91.5126    9.9423 C.ar    1  UNL1       -0.0000
     19 C          64.0851   92.2748   10.8326 C.ar    1  UNL1       -0.0002
     20 C          64.5372   91.6775   12.1321 C.ar    1  UNL1        0.0010
     21 C          65.9575   93.7992   12.6131 C.3     1  UNL1        0.2826
     22 C          66.5450   95.1959   10.5026 C.3     1  UNL1        0.3201
     23 S          66.7351   93.9670   11.3414 S.O     1  UNL1        0.0405
     24 O          67.7028   92.9058   10.9084 O.co2   1  UNL1       -0.6809
     25 C          62.0719   85.8058   11.7025 C.2     1  UNL1        0.2649
     26 O          60.8689   86.6931   11.8269 O.2     1  UNL1       -0.2684
     27 N          62.7038   85.5828   10.3605 N.am    1  UNL1       -0.2996
     28 H          63.4934   85.0004   10.2788 H       1  UNL1        0.1498
     29 C          62.1327   86.2471    9.1429 C.3     1  UNL1        0.0897
     30 C          61.9593   85.4660    7.8741 C.3     1  UNL1        0.0196
     31 C          62.8548   84.6190    7.0193 C.3     1  UNL1        0.0017
     32 C          61.7142   84.3613    6.0797 C.3     1  UNL1        0.0001
     33 C          60.8188   85.2083    6.9346 C.3     1  UNL1        0.0017
     34 O          62.2460   81.7582   14.9562 O.3     1  UNL1       -0.4575
     35 C          61.4763   80.9125   13.9854 C.3     1  UNL1        0.2390
     36 C          62.2047   80.1071   12.9507 C.3     1  UNL1        0.1895
     37 O          63.4013   80.6857   12.2555 O.3     1  UNL1       -0.3471
     38 C          63.2469   81.3360   10.9127 C.3     1  UNL1        0.1739
     39 C          64.1610   82.4558   10.5121 C.3     1  UNL1        0.1692
     40 O          65.0118   83.1350   11.5439 O.3     1  UNL1       -0.3794
     41 H          64.4431   83.6067   12.1724 H       1  UNL1        0.2105
@<TRIPOS>UNITY_ATOM_ATTR
23 1
charge 1
24 1
charge -1
@<TRIPOS>BOND
     1    22    23    1
     2    23    24    2
     3    23    21    1
     4    21    11    1
     5    11    12   ar
     6    12    13   ar
     7    13    14   ar
     8    14     7    1
     9     7     8    2
    10     7     9   am
    11     9     1    1
    12     1     2   ar
    13     2     3   ar
    14     3     4   ar
    15     4    34    1
    16    34    35    1
    17    35    36    1
    18    36    37    1
    19    37    38    1
    20    38    39    1
    21    39    40    1
    22     4     5   ar
    23     5     6   ar
    24     6    25    1
    25    25    26    2
    26    25    27   am
    27    27    29    1
    28    29    30    1
    29    30    31    1
    30    31    32    1
    31    32    33    1
    32    14    15   ar
    33    15    16   ar
    34    16    17   ar
    35    17    18   ar
    36    18    19   ar
    37    19    20   ar
    38    20    11   ar
    39     6     1   ar
    40    33    30    1
    41    20    15   ar
    42     9    10    1
    43    40    41    1
    44    27    28    1
@<TRIPOS>MOLECULE
*****
 41 44 0 0 0
SMALL
GASTEIGER

@<TRIPOS>ATOM
      1 C          61.1971   92.8025    0.3658 C.ar    1  UNL1        0.0732
      2 C          62.0719   92.6497    1.5747 C.ar    1  UNL1        0.0212
      3 C          61.4616   92.6344    2.9449 C.ar    1  UNL1        0.0590
      4 C          59.9766   92.7719    3.1061 C.ar    1  UNL1        0.2251
      5 N          59.1020   92.9247    1.8972 N.ar    1  UNL1       -0.2058
      6 C          59.7122   92.9400    0.5270 C.ar    1  UNL1        0.1509
      7 C          62.0845   94.1242   -1.6875 C.2     1  UNL1        0.2495
      8 O          61.7513   95.4152   -1.0004 O.2     1  UNL1       -0.2698
      9 N          61.8074   92.8177   -1.0044 N.am    1  UNL1       -0.2791
     10 H          62.0260   91.9703   -1.4554 H       1  UNL1        0.1552
     11 C          63.9152   94.1700   -5.7980 C.ar    1  UNL1        0.0366
     12 C          64.7911   94.0293   -4.5884 C.ar    1  UNL1        0.0009
     13 C          64.1809   94.0140   -3.2182 C.ar    1  UNL1        0.0044
     14 C          62.6947   94.1394   -3.0576 C.ar    1  UNL1        0.0537
     15 C          61.8189   94.2801   -4.2672 C.ar    1  UNL1        0.0042
     16 C          60.3328   94.4056   -4.1066 C.ar    1  UNL1        0.0001
     17 C          59.4569   94.5463   -5.3162 C.ar    1  UNL1        0.0000
     18 C          60.0672   94.5615   -6.6864 C.ar    1  UNL1       -0.0000
     19 C          61.5533   94.4361   -6.8469 C.ar    1  UNL1       -0.0002
     20 C          62.4291   94.2954   -5.6374 C.ar    1  UNL1        0.0010
     21 C          64.5255   94.1853   -7.1682 C.3     1  UNL1        0.2826
     22 C          67.0701   94.5341   -7.5598 C.3     1  UNL1        0.3201
     23 S          65.8965   93.6165   -7.3849 S.O     1  UNL1        0.0405
     24 O          66.0938   92.1301   -7.4269 O.co2   1  UNL1       -0.6809
     25 C          58.8374   93.0928   -0.6819 C.2     1  UNL1        0.2649
     26 O          59.1783   92.3688   -1.9507 O.2     1  UNL1       -0.2684
     27 N          57.6219   93.9695   -0.6221 N.am    1  UNL1       -0.2996
     28 H          57.3981   94.4447    0.2106 H       1  UNL1        0.1498
     29 C          56.7472   94.1223   -1.8311 C.3     1  UNL1        0.0897
     30 C          56.4334   92.9299   -2.6854 C.3     1  UNL1        0.0196
     31 C          55.8627   91.5657   -2.4339 C.3     1  UNL1        0.0017
     32 C          55.9897   91.2435   -3.8934 C.3     1  UNL1        0.0001
     33 C          56.5605   92.6077   -4.1448 C.3     1  UNL1        0.0017
     34 O          59.3664   92.7566    4.4763 O.3     1  UNL1       -0.4575
     35 C          58.6300   91.5409    4.9558 C.3     1  UNL1        0.2390
     36 C          59.3843   90.4052    5.5811 C.3     1  UNL1        0.1895
     37 O          58.7774   89.6372    6.7177 O.3     1  UNL1       -0.3471
     38 C          59.6582   88.8763    7.6637 C.3     1  UNL1        0.1739
     39 C          59.5789   87.3796    7.7228 C.3     1  UNL1        0.1692
     40 O          58.2421   86.7003    7.7635 O.3     1  UNL1       -0.3794
     41 H          57.7932   86.9196    8.5949 H       1  UNL1        0.2105
@<TRIPOS>UNITY_ATOM_ATTR
23 1
charge 1
24 1
charge -1
@<TRIPOS>BOND
     1    22    23    1
     2    23    24    2
     3    23    21    1
     4    21    11    1
     5    11    12   ar
     6    12    13   ar
     7    13    14   ar
     8    14     7    1
     9     7     8    2
    10     7     9   am
    11     9     1    1
    12     1     2   ar
    13     2     3   ar
    14     3     4   ar
    15     4    34    1
    16    34    35    1
    17    35    36    1
    18    36    37    1
    19    37    38    1
    20    38    39    1
    21    39    40    1
    22     4     5   ar
    23     5     6   ar
    24     6    25    1
    25    25    26    2
    26    25    27   am
    27    27    29    1
    28    29    30    1
    29    30    31    1
    30    31    32    1
    31    32    33    1
    32    14    15   ar
    33    15    16   ar
    34    16    17   ar
    35    17    18   ar
    36    18    19   ar
    37    19    20   ar
    38    20    11   ar
    39     6     1   ar
    40    33    30    1
    41    20    15   ar
    42     9    10    1
    43    40    41    1
    44    27    28    1
