@<TRIPOS>MOLECULE
*****
 38 41 0 0 0
SMALL
GASTEIGER

@<TRIPOS>ATOM
      1 CA         64.7473   92.2587   12.0589 C.3     2  LEU2        0.1523
      2 C          64.2877   92.5439   10.6599 C.2     2  LEU2        0.2409
      3 O          64.7013   93.8149    9.9789 O.2     2  LEU2       -0.2733
      4 N          63.4144   91.5582    9.9418 N.am    1  UNK1       -0.2970
      5 C          63.0007   90.2873   10.6227 C.3     1  UNK1        0.1494
      6 C          63.4604   90.0022   12.0217 C.2     1  UNK1        0.2444
      7 O          63.0467   88.7312   12.7027 O.2     1  UNK1       -0.2731
      8 N          64.3337   90.9879   12.7398 N.am    2  LEU2       -0.2615
      9 H          63.1127   91.7454    9.0235 H       1  UNK1        0.1499
     10 C          62.1274   89.3016    9.9046 C.3     1  UNK1        0.0356
     11 C          62.4583   87.8638    9.6339 C.3     1  UNK1        0.0285
     12 C          61.3053   87.2542    8.8931 C.ar    1  UNK1       -0.0261
     13 C          61.0708   85.8701    8.3648 C.ar    1  UNK1       -0.0046
     14 C          59.7927   85.5470    7.6493 C.ar    1  UNK1       -0.0003
     15 C          58.7491   86.6080    7.4621 C.ar    1  UNK1       -0.0003
     16 C          58.9835   87.9922    7.9903 C.ar    1  UNK1       -0.0046
     17 C          60.2617   88.3153    8.7059 C.ar    1  UNK1       -0.0261
     18 C          60.7698   89.5806    9.3310 C.3     1  UNK1        0.0285
     19 CB         65.6207   93.2445   12.7770 C.3     2  LEU2        0.0292
     20 CD1        67.5991   93.5279   11.1171 C.3     2  LEU2        0.0001
     21 CG         66.5469   94.1317   11.9993 C.3     2  LEU2        0.0021
     22 CD2        66.4210   95.6228   12.1039 C.3     2  LEU2        0.0001
     23 C          64.7934   90.7026   14.1389 C.3     0  UNK0        0.1772
     24 C          65.9989   91.4047   14.6900 C.ar    0  UNK0        0.0321
     25 C          67.3385   91.2156   14.0419 C.ar    0  UNK0        0.0023
     26 C          68.5441   91.9177   14.5931 C.ar    0  UNK0        0.0295
     27 C          68.4101   92.8088   15.7923 C.ar    0  UNK0        0.1424
     28 F          69.6156   93.5108   16.3434 F       0  UNK0       -0.2041
     29 C          67.0706   92.9978   16.4403 C.ar    0  UNK0        0.0590
     30 C          65.8650   92.2957   15.8892 C.ar    0  UNK0        0.1404
     31 F          64.5255   92.4848   16.5373 F       0  UNK0       -0.2044
     32 C          64.0475   89.7154   14.9868 C.2     0  UNK0        0.2449
     33 O          62.8215   90.1458   15.7362 O.2     0  UNK0       -0.2729
     34 N          64.5277   88.2977   15.0854 N.am    0  UNK0       -0.3043
     35 H          65.3323   88.0152   14.5935 H       0  UNK0        0.1494
     36 C          63.7818   87.3104   15.9332 C.3     0  UNK0        0.0717
     37 C          62.9774   87.7863   17.1064 C.3     0  UNK0        0.0213
     38 C          63.8403   85.8473   15.6080 C.3     0  UNK0        0.0213
@<TRIPOS>BOND
     1    20    21    1
     2    21    22    1
     3    21    19    1
     4     1    19    1
     5     1     2    1
     6     2     3    2
     7     2     4   am
     8     4     5    1
     9     5    10    1
    10    10    11    1
    11    11    12    1
    12    12    13   ar
    13    13    14   ar
    14    14    15   ar
    15    15    16   ar
    16    16    17   ar
    17    17    18    1
    18     5     6    1
    19     6     7    2
    20     6     8   am
    21    23     8    1
    22    23    32    1
    23    32    33    2
    24    32    34   am
    25    34    36    1
    26    36    37    1
    27    36    38    1
    28    23    24    1
    29    24    25   ar
    30    25    26   ar
    31    26    27   ar
    32    27    28    1
    33    27    29   ar
    34    29    30   ar
    35    30    31    1
    36     8     1    1
    37    30    24   ar
    38    18    10    1
    39    17    12   ar
    40     4     9    1
    41    34    35    1
@<TRIPOS>MOLECULE
*****
 38 41 0 0 0
SMALL
GASTEIGER

@<TRIPOS>ATOM
      1 CA         62.6235   95.5023   -0.8321 C.3     2  LEU2        0.1523
      2 C          62.9836   95.7663    0.5999 C.2     2  LEU2        0.2409
      3 O          63.9567   96.8560    0.9400 O.2     2  LEU2       -0.2733
      4 N          62.3706   94.9405    1.6919 N.am    1  UNK1       -0.2970
      5 C          61.3975   93.8509    1.3518 C.3     1  UNK1        0.1494
      6 C          61.0374   93.5869   -0.0801 C.2     1  UNK1        0.2444
      7 O          60.0643   92.4972   -0.4202 O.2     1  UNK1       -0.2731
      8 N          61.6504   94.4126   -1.1721 N.am    2  LEU2       -0.2615
      9 H          62.6069   95.1138    2.6317 H       1  UNK1        0.1499
     10 C          60.7845   93.0252    2.4438 C.3     1  UNK1        0.0356
     11 C          59.3373   93.0196    2.8383 C.3     1  UNK1        0.0285
     12 C          59.1694   92.0510    3.9713 C.ar    1  UNK1       -0.0261
     13 C          57.9668   91.6325    4.7641 C.ar    1  UNK1       -0.0046
     14 C          58.1076   90.6209    5.8626 C.ar    1  UNK1       -0.0003
     15 C          59.4510   90.0278    6.1683 C.ar    1  UNK1       -0.0003
     16 C          60.6536   90.4463    5.3756 C.ar    1  UNK1       -0.0046
     17 C          60.5128   91.4579    4.2771 C.ar    1  UNK1       -0.0261
     18 C          61.5110   92.0600    3.3330 C.3     1  UNK1        0.0285
     19 CB         63.2366   96.3280   -1.9241 C.3     2  LEU2        0.0292
     20 CD1        65.1345   96.1018   -3.6837 C.3     2  LEU2        0.0001
     21 CG         64.6922   96.1757   -2.2523 C.3     2  LEU2        0.0021
     22 CD2        65.7056   96.0971   -1.1492 C.3     2  LEU2        0.0001
     23 C          61.2903   94.1486   -2.6042 C.3     0  UNK0        0.1772
     24 C          62.3465   93.7086   -3.5742 C.ar    0  UNK0        0.0321
     25 C          63.4363   92.7802   -3.1264 C.ar    0  UNK0        0.0023
     26 C          64.4924   92.3402   -4.0964 C.ar    0  UNK0        0.0295
     27 C          64.4587   92.8287   -5.5143 C.ar    0  UNK0        0.1424
     28 F          65.5149   92.3887   -6.4844 F       0  UNK0       -0.2041
     29 C          63.3690   93.7570   -5.9621 C.ar    0  UNK0        0.0590
     30 C          62.3129   94.1970   -4.9921 C.ar    0  UNK0        0.1404
     31 F          61.2231   95.1254   -5.4399 F       0  UNK0       -0.2044
     32 C          59.8742   94.3246   -3.0661 C.2     0  UNK0        0.2449
     33 O          59.3220   95.7021   -3.2841 O.2     0  UNK0       -0.2729
     34 N          59.0100   93.1230   -3.3101 N.am    0  UNK0       -0.3043
     35 H          59.3724   92.2188   -3.1670 H       0  UNK0        0.1494
     36 C          57.5938   93.2989   -3.7720 C.3     0  UNK0        0.0717
     37 C          57.2939   93.4367   -5.2352 C.3     0  UNK0        0.0213
     38 C          56.4776   93.3371   -2.7707 C.3     0  UNK0        0.0213
@<TRIPOS>BOND
     1    20    21    1
     2    21    22    1
     3    21    19    1
     4     1    19    1
     5     1     2    1
     6     2     3    2
     7     2     4   am
     8     4     5    1
     9     5    10    1
    10    10    11    1
    11    11    12    1
    12    12    13   ar
    13    13    14   ar
    14    14    15   ar
    15    15    16   ar
    16    16    17   ar
    17    17    18    1
    18     5     6    1
    19     6     7    2
    20     6     8   am
    21    23     8    1
    22    23    32    1
    23    32    33    2
    24    32    34   am
    25    34    36    1
    26    36    37    1
    27    36    38    1
    28    23    24    1
    29    24    25   ar
    30    25    26   ar
    31    26    27   ar
    32    27    28    1
    33    27    29   ar
    34    29    30   ar
    35    30    31    1
    36     8     1    1
    37    30    24   ar
    38    18    10    1
    39    17    12   ar
    40     4     9    1
    41    34    35    1
@<TRIPOS>MOLECULE
*****
 38 41 0 0 0
SMALL
GASTEIGER

@<TRIPOS>ATOM
      1 CA         62.7199   86.0735   12.4365 C.3     2  LEU2        0.1523
      2 C          63.7426   86.0235   13.5326 C.2     2  LEU2        0.2409
      3 O          64.0490   84.7226   14.2137 O.2     2  LEU2       -0.2733
      4 N          64.4591   87.2743   13.9475 N.am    1  UNK1       -0.2970
      5 C          64.1527   88.5751   13.2664 C.3     1  UNK1        0.1494
      6 C          63.1300   88.6251   12.1704 C.2     1  UNK1        0.2444
      7 O          62.8236   89.9260   11.4892 O.2     1  UNK1       -0.2731
      8 N          62.4135   87.3743   11.7554 N.am    2  LEU2       -0.2615
      9 H          65.1304   87.2414   14.6669 H       1  UNK1        0.1499
     10 C          64.8692   89.8259   13.6814 C.3     1  UNK1        0.0356
     11 C          65.5651   90.0502   14.9911 C.3     1  UNK1        0.0285
     12 C          66.1415   91.4349   14.9786 C.ar    1  UNK1       -0.0261
     13 C          66.9318   92.2023   15.9967 C.ar    1  UNK1       -0.0046
     14 C          67.3824   93.6014   15.6973 C.ar    1  UNK1       -0.0003
     15 C          67.0427   94.2330   14.3799 C.ar    1  UNK1       -0.0003
     16 C          66.2524   93.4656   13.3618 C.ar    1  UNK1       -0.0046
     17 C          65.8018   92.0666   13.6612 C.ar    1  UNK1       -0.0261
     18 C          65.0155   91.0721   12.8595 C.3     1  UNK1        0.0285
     19 CB         62.0034   84.8227   12.0216 C.3     2  LEU2        0.0292
     20 CD1        63.9254   83.5776   10.7945 C.3     2  LEU2        0.0001
     21 CG         62.7789   83.5653   11.7616 C.3     2  LEU2        0.0021
     22 CD2        62.4079   82.2955   12.4688 C.3     2  LEU2        0.0001
     23 C          61.3907   87.4244   10.6593 C.3     0  UNK0        0.1772
     24 C          61.5765   86.5974    9.4218 C.ar    0  UNK0        0.0321
     25 C          62.9524   86.1676    9.0065 C.ar    0  UNK0        0.0023
     26 C          63.1383   85.3406    7.7690 C.ar    0  UNK0        0.0295
     27 C          61.9482   84.9433    6.9467 C.ar    0  UNK0        0.1424
     28 F          62.1341   84.1163    5.7091 F       0  UNK0       -0.2041
     29 C          60.5725   85.3731    7.3619 C.ar    0  UNK0        0.0590
     30 C          60.3866   86.2001    8.5995 C.ar    0  UNK0        0.1404
     31 F          59.0107   86.6298    9.0147 F       0  UNK0       -0.2044
     32 C          60.1821   88.3014   10.8008 C.2     0  UNK0        0.2449
     33 O          59.6498   89.0427    9.6103 O.2     0  UNK0       -0.2729
     34 N          59.5057   88.4372   12.1327 N.am    0  UNK0       -0.3043
     35 H          59.8550   87.9507   12.9141 H       0  UNK0        0.1494
     36 C          58.2971   89.3143   12.2742 C.3     0  UNK0        0.0717
     37 C          57.0269   88.7548   12.8430 C.3     0  UNK0        0.0213
     38 C          58.3587   90.7508   11.8469 C.3     0  UNK0        0.0213
@<TRIPOS>BOND
     1    20    21    1
     2    21    22    1
     3    21    19    1
     4     1    19    1
     5     1     2    1
     6     2     3    2
     7     2     4   am
     8     4     5    1
     9     5    10    1
    10    10    11    1
    11    11    12    1
    12    12    13   ar
    13    13    14   ar
    14    14    15   ar
    15    15    16   ar
    16    16    17   ar
    17    17    18    1
    18     5     6    1
    19     6     7    2
    20     6     8   am
    21    23     8    1
    22    23    32    1
    23    32    33    2
    24    32    34   am
    25    34    36    1
    26    36    37    1
    27    36    38    1
    28    23    24    1
    29    24    25   ar
    30    25    26   ar
    31    26    27   ar
    32    27    28    1
    33    27    29   ar
    34    29    30   ar
    35    30    31    1
    36     8     1    1
    37    30    24   ar
    38    18    10    1
    39    17    12   ar
    40     4     9    1
    41    34    35    1
@<TRIPOS>MOLECULE
*****
 38 41 0 0 0
SMALL
GASTEIGER

@<TRIPOS>ATOM
      1 CA         64.7963   92.1260   12.2301 C.3     2  LEU2        0.1523
      2 C          64.3794   92.4232   10.8202 C.2     2  LEU2        0.2409
      3 O          64.8491   93.6793   10.1481 O.2     2  LEU2       -0.2733
      4 N          63.4927   91.4643   10.0824 N.am    1  UNK1       -0.2970
      5 C          63.0229   90.2083   10.7544 C.3     1  UNK1        0.1494
      6 C          63.4399   89.9111   12.1643 C.2     1  UNK1        0.2444
      7 O          62.9701   88.6550   12.8364 O.2     1  UNK1       -0.2731
      8 N          64.3266   90.8700   12.9021 N.am    2  LEU2       -0.2615
      9 H          63.2190   91.6594    9.1570 H       1  UNK1        0.1499
     10 C          62.1362   89.2495   10.0166 C.3     1  UNK1        0.0356
     11 C          62.4692   87.8284    9.6706 C.3     1  UNK1        0.0285
     12 C          61.2996   87.2440    8.9354 C.ar    1  UNK1       -0.0261
     13 C          61.0597   85.8837    8.3506 C.ar    1  UNK1       -0.0046
     14 C          59.7638   85.5833    7.6575 C.ar    1  UNK1       -0.0003
     15 C          58.7080   86.6432    7.5491 C.ar    1  UNK1       -0.0003
     16 C          58.9479   88.0035    8.1338 C.ar    1  UNK1       -0.0046
     17 C          60.2437   88.3039    8.8270 C.ar    1  UNK1       -0.0261
     18 C          60.7608   89.5433    9.4952 C.3     1  UNK1        0.0285
     19 CB         65.6831   93.0848   12.9679 C.3     2  LEU2        0.0292
     20 CD1        66.4449   95.4704   12.2763 C.3     2  LEU2        0.0001
     21 CG         66.6146   93.9816   12.2077 C.3     2  LEU2        0.0021
     22 CD2        67.7158   93.3897   11.3788 C.3     2  LEU2        0.0001
     23 C          64.7436   90.5727   14.3121 C.3     0  UNK0        0.1772
     24 C          64.2713   89.3181   14.9851 C.ar    0  UNK0        0.0321
     25 C          64.7020   87.9793   14.4633 C.ar    0  UNK0        0.0023
     26 C          64.2297   86.7248   15.1364 C.ar    0  UNK0        0.0295
     27 C          63.3268   86.8090   16.3313 C.ar    0  UNK0        0.1424
     28 F          62.8545   85.5544   17.0043 F       0  UNK0       -0.2041
     29 C          62.8961   88.1477   16.8530 C.ar    0  UNK0        0.0590
     30 C          63.3684   89.4023   16.1800 C.ar    0  UNK0        0.1404
     31 F          62.9377   90.7411   16.7018 F       0  UNK0       -0.2044
     32 C          65.6327   91.5300   15.0488 C.2     0  UNK0        0.2449
     33 O          65.0320   92.5863   15.9282 O.2     0  UNK0       -0.2729
     34 N          67.1227   91.4310   14.9063 N.am    0  UNK0       -0.3043
     35 H          67.5170   90.7377   14.3291 H       0  UNK0        0.1494
     36 C          68.0119   92.3883   15.6430 C.3     0  UNK0        0.0717
     37 C          68.9452   91.8813   16.7022 C.3     0  UNK0        0.0213
     38 C          67.9678   93.8526   15.3207 C.3     0  UNK0        0.0213
@<TRIPOS>BOND
     1    20    21    1
     2    21    22    1
     3    21    19    1
     4     1    19    1
     5     1     2    1
     6     2     3    2
     7     2     4   am
     8     4     5    1
     9     5    10    1
    10    10    11    1
    11    11    12    1
    12    12    13   ar
    13    13    14   ar
    14    14    15   ar
    15    15    16   ar
    16    16    17   ar
    17    17    18    1
    18     5     6    1
    19     6     7    2
    20     6     8   am
    21    23     8    1
    22    23    32    1
    23    32    33    2
    24    32    34   am
    25    34    36    1
    26    36    37    1
    27    36    38    1
    28    23    24    1
    29    24    25   ar
    30    25    26   ar
    31    26    27   ar
    32    27    28    1
    33    27    29   ar
    34    29    30   ar
    35    30    31    1
    36     8     1    1
    37    30    24   ar
    38    18    10    1
    39    17    12   ar
    40     4     9    1
    41    34    35    1
@<TRIPOS>MOLECULE
*****
 38 41 0 0 0
SMALL
GASTEIGER

@<TRIPOS>ATOM
      1 CA         62.6873   95.4825   -0.4324 C.3     2  LEU2        0.1523
      2 C          62.9580   95.7421    1.0199 C.2     2  LEU2        0.2409
      3 O          63.8786   96.8554    1.4240 O.2     2  LEU2       -0.2733
      4 N          62.3082   94.8884    2.0682 N.am    1  UNK1       -0.2970
      5 C          61.3877   93.7751    1.6642 C.3     1  UNK1        0.1494
      6 C          61.1170   93.5156    0.2119 C.2     1  UNK1        0.2444
      7 O          60.1964   92.4023   -0.1922 O.2     1  UNK1       -0.2731
      8 N          61.7668   94.3693   -0.8364 N.am    2  LEU2       -0.2615
      9 H          62.4859   95.0588    3.0215 H       1  UNK1        0.1499
     10 C          60.7378   92.9215    2.7125 C.3     1  UNK1        0.0356
     11 C          59.2824   92.9255    3.0752 C.3     1  UNK1        0.0285
     12 C          59.0744   91.9204    4.1691 C.ar    1  UNK1       -0.0261
     13 C          57.8482   91.4937    4.9202 C.ar    1  UNK1       -0.0046
     14 C          57.9489   90.4418    5.9847 C.ar    1  UNK1       -0.0003
     15 C          59.2759   89.8165    6.2981 C.ar    1  UNK1       -0.0003
     16 C          60.5021   90.2431    5.5469 C.ar    1  UNK1       -0.0046
     17 C          60.4014   91.2951    4.4824 C.ar    1  UNK1       -0.0261
     18 C          61.4294   91.9138    3.5822 C.3     1  UNK1        0.0285
     19 CB         63.3371   96.3362   -1.4807 C.3     2  LEU2        0.0292
     20 CD1        65.7746   95.8259   -0.7403 C.3     2  LEU2        0.0001
     21 CG         64.7831   96.1326   -1.8234 C.3     2  LEU2        0.0021
     22 CD2        65.2378   96.2356   -3.2491 C.3     2  LEU2        0.0001
     23 C          61.4960   94.1097   -2.2888 C.3     0  UNK0        0.1772
     24 C          60.1157   94.3078   -2.8415 C.ar    0  UNK0        0.0321
     25 C          59.3380   93.1328   -3.3560 C.ar    0  UNK0        0.0023
     26 C          57.9577   93.3309   -3.9087 C.ar    0  UNK0        0.0295
     27 C          57.3550   94.7040   -3.9468 C.ar    0  UNK0        0.1424
     28 F          55.9747   94.9021   -4.4995 F       0  UNK0       -0.2041
     29 C          58.1327   95.8789   -3.4323 C.ar    0  UNK0        0.0590
     30 C          59.5130   95.6808   -2.8796 C.ar    0  UNK0        0.1404
     31 F          60.2906   96.8558   -2.3651 F       0  UNK0       -0.2044
     32 C          62.6056   93.6520   -3.1885 C.2     0  UNK0        0.2449
     33 O          63.7100   92.7969   -2.6417 O.2     0  UNK0       -0.2729
     34 N          62.6107   94.0494   -4.6349 N.am    0  UNK0       -0.3043
     35 H          61.8858   94.6107   -4.9937 H       0  UNK0        0.1494
     36 C          63.7202   93.5917   -5.5345 C.3     0  UNK0        0.0717
     37 C          64.2256   92.1823   -5.4446 C.3     0  UNK0        0.0213
     38 C          64.3244   94.5435   -6.5241 C.3     0  UNK0        0.0213
@<TRIPOS>BOND
     1    20    21    1
     2    21    22    1
     3    21    19    1
     4     1    19    1
     5     1     2    1
     6     2     3    2
     7     2     4   am
     8     4     5    1
     9     5    10    1
    10    10    11    1
    11    11    12    1
    12    12    13   ar
    13    13    14   ar
    14    14    15   ar
    15    15    16   ar
    16    16    17   ar
    17    17    18    1
    18     5     6    1
    19     6     7    2
    20     6     8   am
    21    23     8    1
    22    23    32    1
    23    32    33    2
    24    32    34   am
    25    34    36    1
    26    36    37    1
    27    36    38    1
    28    23    24    1
    29    24    25   ar
    30    25    26   ar
    31    26    27   ar
    32    27    28    1
    33    27    29   ar
    34    29    30   ar
    35    30    31    1
    36     8     1    1
    37    30    24   ar
    38    18    10    1
    39    17    12   ar
    40     4     9    1
    41    34    35    1
@<TRIPOS>MOLECULE
*****
 38 41 0 0 0
SMALL
GASTEIGER

@<TRIPOS>ATOM
      1 CA         62.8518   85.6792   14.4708 C.3     2  LEU2        0.1523
      2 C          63.2337   86.4977   15.6683 C.2     2  LEU2        0.2409
      3 O          63.0399   85.9431   17.0486 O.2     2  LEU2       -0.2733
      4 N          63.8094   87.8708   15.4857 N.am    1  UNK1       -0.2970
      5 C          64.0031   88.4253   14.1056 C.3     1  UNK1        0.1494
      6 C          63.6212   87.6069   12.9080 C.2     1  UNK1        0.2444
      7 O          63.8150   88.1614   11.5278 O.2     1  UNK1       -0.2731
      8 N          63.0455   86.2338   13.0906 N.am    2  LEU2       -0.2615
      9 H          64.0601   88.4079   16.2718 H       1  UNK1        0.1499
     10 C          64.5788   89.7984   13.9230 C.3     1  UNK1        0.0356
     11 C          64.4771   90.6397   12.6853 C.3     1  UNK1        0.0285
     12 C          65.1927   91.9325   12.9434 C.ar    1  UNK1       -0.0261
     13 C          65.4192   93.1427   12.0867 C.ar    1  UNK1       -0.0046
     14 C          66.1898   94.3106   12.6272 C.ar    1  UNK1       -0.0003
     15 C          66.7338   94.2683   14.0244 C.ar    1  UNK1       -0.0003
     16 C          66.5073   93.0581   14.8811 C.ar    1  UNK1       -0.0046
     17 C          65.7368   91.8902   14.3406 C.ar    1  UNK1       -0.0261
     18 C          65.3574   90.5712   14.9460 C.3     1  UNK1        0.0285
     19 CB         62.2761   84.3062   14.6534 C.3     2  LEU2        0.0292
     20 CD1        64.6442   83.3775   15.1818 C.3     2  LEU2        0.0001
     21 CG         63.1811   83.1463   14.9456 C.3     2  LEU2        0.0021
     22 CD2        62.6230   81.7550   15.0017 C.3     2  LEU2        0.0001
     23 C          62.6636   85.4153   11.8930 C.3     0  UNK0        0.1772
     24 C          61.7755   86.0019   10.8360 C.ar    0  UNK0        0.0321
     25 C          60.6807   86.9530   11.2193 C.ar    0  UNK0        0.0023
     26 C          59.7926   87.5396   10.1624 C.ar    0  UNK0        0.0295
     27 C          59.9993   87.1751    8.7220 C.ar    0  UNK0        0.1424
     28 F          59.1112   87.7616    7.6650 F       0  UNK0       -0.2041
     29 C          61.0941   86.2240    8.3387 C.ar    0  UNK0        0.0590
     30 C          61.9822   85.6374    9.3957 C.ar    0  UNK0        0.1404
     31 F          63.0770   84.6863    9.0124 F       0  UNK0       -0.2044
     32 C          63.1698   84.0104   11.7524 C.2     0  UNK0        0.2449
     33 O          64.6445   83.7379   11.7831 O.2     0  UNK0       -0.2729
     34 N          62.2012   82.8778   11.5810 N.am    0  UNK0       -0.3043
     35 H          61.2333   83.0567   11.5608 H       0  UNK0        0.1494
     36 C          62.7073   81.4729   11.4404 C.3     0  UNK0        0.0717
     37 C          62.5401   80.4990   12.5689 C.3     0  UNK0        0.0213
     38 C          63.3808   81.0418   10.1713 C.3     0  UNK0        0.0213
@<TRIPOS>BOND
     1    20    21    1
     2    21    22    1
     3    21    19    1
     4     1    19    1
     5     1     2    1
     6     2     3    2
     7     2     4   am
     8     4     5    1
     9     5    10    1
    10    10    11    1
    11    11    12    1
    12    12    13   ar
    13    13    14   ar
    14    14    15   ar
    15    15    16   ar
    16    16    17   ar
    17    17    18    1
    18     5     6    1
    19     6     7    2
    20     6     8   am
    21    23     8    1
    22    23    32    1
    23    32    33    2
    24    32    34   am
    25    34    36    1
    26    36    37    1
    27    36    38    1
    28    23    24    1
    29    24    25   ar
    30    25    26   ar
    31    26    27   ar
    32    27    28    1
    33    27    29   ar
    34    29    30   ar
    35    30    31    1
    36     8     1    1
    37    30    24   ar
    38    18    10    1
    39    17    12   ar
    40     4     9    1
    41    34    35    1
@<TRIPOS>MOLECULE
*****
 38 41 0 0 0
SMALL
GASTEIGER

@<TRIPOS>ATOM
      1 CA         63.1590   86.6976   13.6425 C.3     2  LEU2        0.1523
      2 C          63.9046   87.5132   14.6569 C.2     2  LEU2        0.2409
      3 O          64.1693   86.9520   16.0226 O.2     2  LEU2       -0.2733
      4 N          64.3853   88.8900   14.3056 N.am    1  UNK1       -0.2970
      5 C          64.1206   89.4511   12.9400 C.3     1  UNK1        0.1494
      6 C          63.3751   88.6355   11.9256 C.2     1  UNK1        0.2444
      7 O          63.1103   89.1967   10.5599 O.2     1  UNK1       -0.2731
      8 N          62.8943   87.2588   12.2769 N.am    2  LEU2       -0.2615
      9 H          64.8747   89.4253   14.9714 H       1  UNK1        0.1499
     10 C          64.6014   90.8279   12.5887 C.3     1  UNK1        0.0356
     11 C          64.4028   91.5224   11.2741 C.3     1  UNK1        0.0285
     12 C          65.0439   92.8756   11.3633 C.ar    1  UNK1       -0.0261
     13 C          65.1628   93.9970   10.3742 C.ar    1  UNK1       -0.0046
     14 C          65.8766   95.2602   10.7549 C.ar    1  UNK1       -0.0003
     15 C          66.4713   95.4019   12.1246 C.ar    1  UNK1       -0.0003
     16 C          66.3523   94.2806   13.1137 C.ar    1  UNK1       -0.0046
     17 C          65.6386   93.0174   12.7330 C.ar    1  UNK1       -0.0261
     18 C          65.3651   91.7518   13.4904 C.3     1  UNK1        0.0285
     19 CB         62.6782   85.3208   13.9938 C.3     2  LEU2        0.0292
     20 CD1        63.1686   83.3325   15.5925 C.3     2  LEU2        0.0001
     21 CG         63.6355   84.3134   14.5582 C.3     2  LEU2        0.0021
     22 CD2        65.0599   84.2869   14.0884 C.3     2  LEU2        0.0001
     23 C          62.1487   86.4432   11.2625 C.3     0  UNK0        0.1772
     24 C          62.5622   85.0277   10.9876 C.ar    0  UNK0        0.0321
     25 C          62.1893   83.9374   11.9480 C.ar    0  UNK0        0.0023
     26 C          62.6028   82.5220   11.6731 C.ar    0  UNK0        0.0295
     27 C          63.3892   82.1969   10.4378 C.ar    0  UNK0        0.1424
     28 F          63.8027   80.7814   10.1629 F       0  UNK0       -0.2041
     29 C          63.7621   83.2871    9.4775 C.ar    0  UNK0        0.0590
     30 C          63.3486   84.7025    9.7524 C.ar    0  UNK0        0.1404
     31 F          63.7216   85.7928    8.7920 F       0  UNK0       -0.2044
     32 C          60.9897   87.0430   10.5230 C.2     0  UNK0        0.2449
     33 O          59.8486   87.6510   11.2834 O.2     0  UNK0       -0.2729
     34 N          60.9718   87.0348    9.0231 N.am    0  UNK0       -0.3043
     35 H          61.7208   86.6358    8.5240 H       0  UNK0        0.1494
     36 C          59.8128   87.6347    8.2836 C.3     0  UNK0        0.0717
     37 C          58.6888   86.7594    7.8142 C.3     0  UNK0        0.0213
     38 C          59.7779   89.1098    8.0136 C.3     0  UNK0        0.0213
@<TRIPOS>BOND
     1    20    21    1
     2    21    22    1
     3    21    19    1
     4     1    19    1
     5     1     2    1
     6     2     3    2
     7     2     4   am
     8     4     5    1
     9     5    10    1
    10    10    11    1
    11    11    12    1
    12    12    13   ar
    13    13    14   ar
    14    14    15   ar
    15    15    16   ar
    16    16    17   ar
    17    17    18    1
    18     5     6    1
    19     6     7    2
    20     6     8   am
    21    23     8    1
    22    23    32    1
    23    32    33    2
    24    32    34   am
    25    34    36    1
    26    36    37    1
    27    36    38    1
    28    23    24    1
    29    24    25   ar
    30    25    26   ar
    31    26    27   ar
    32    27    28    1
    33    27    29   ar
    34    29    30   ar
    35    30    31    1
    36     8     1    1
    37    30    24   ar
    38    18    10    1
    39    17    12   ar
    40     4     9    1
    41    34    35    1
@<TRIPOS>MOLECULE
*****
 38 41 0 0 0
SMALL
GASTEIGER

@<TRIPOS>ATOM
      1 CA         63.2934   89.7338   14.1622 C.3     2  LEU2        0.1523
      2 C          63.9080   90.9354   14.8167 C.2     2  LEU2        0.2409
      3 O          63.8326   91.0991   16.3059 O.2     2  LEU2       -0.2733
      4 N          64.5981   91.9733   13.9821 N.am    1  UNK1       -0.2970
      5 C          64.6735   91.8096   12.4930 C.3     1  UNK1        0.1494
      6 C          64.0589   90.6080   11.8385 C.2     1  UNK1        0.2444
      7 O          64.1344   90.4443   10.3493 O.2     1  UNK1       -0.2731
      8 N          63.3689   89.5701   12.6731 N.am    2  LEU2       -0.2615
      9 H          65.0015   92.7619   14.4117 H       1  UNK1        0.1499
     10 C          65.3636   92.8475   11.6584 C.3     1  UNK1        0.0356
     11 C          65.9981   92.6221   10.3180 C.3     1  UNK1        0.0285
     12 C          66.5669   93.9283    9.8488 C.ar    1  UNK1       -0.0261
     13 C          67.3060   94.3108    8.6008 C.ar    1  UNK1       -0.0046
     14 C          67.7621   95.7260    8.4033 C.ar    1  UNK1       -0.0003
     15 C          67.4793   96.7587    9.4537 C.ar    1  UNK1       -0.0003
     16 C          66.7403   96.3763   10.7017 C.ar    1  UNK1       -0.0046
     17 C          66.2841   94.9611   10.8992 C.ar    1  UNK1       -0.0261
     18 C          65.5404   94.2931   12.0176 C.3     1  UNK1        0.0285
     19 CB         62.6034   88.6959   14.9968 C.3     2  LEU2        0.0292
     20 CD1        63.0138   88.0920   17.4901 C.3     2  LEU2        0.0001
     21 CG         63.3713   87.9412   16.0412 C.3     2  LEU2        0.0021
     22 CD2        64.4967   87.0358   15.6366 C.3     2  LEU2        0.0001
     23 C          62.7543   88.3685   12.0185 C.3     0  UNK0        0.1772
     24 C          61.7990   88.5436   10.8753 C.ar    0  UNK0        0.0321
     25 C          61.8826   87.6378    9.6826 C.ar    0  UNK0        0.0023
     26 C          60.9274   87.8129    8.5394 C.ar    0  UNK0        0.0295
     27 C          59.8885   88.8938    8.5890 C.ar    0  UNK0        0.1424
     28 F          58.9332   89.0689    7.4458 F       0  UNK0       -0.2041
     29 C          59.8049   89.7995    9.7817 C.ar    0  UNK0        0.0590
     30 C          60.7602   89.6244   10.9249 C.ar    0  UNK0        0.1404
     31 F          60.6765   90.5303   12.1176 F       0  UNK0       -0.2044
     32 C          63.0949   86.9918   12.5071 C.2     0  UNK0        0.2449
     33 O          64.4182   86.7357   13.1654 O.2     0  UNK0       -0.2729
     34 N          62.1123   85.8712   12.3374 N.am    0  UNK0       -0.3043
     35 H          61.2437   86.0393   11.9054 H       0  UNK0        0.1494
     36 C          62.4529   84.4946   12.8260 C.3     0  UNK0        0.0717
     37 C          62.4113   84.1881   14.2937 C.3     0  UNK0        0.0213
     38 C          62.8352   83.4245   11.8469 C.3     0  UNK0        0.0213
@<TRIPOS>BOND
     1    20    21    1
     2    21    22    1
     3    21    19    1
     4     1    19    1
     5     1     2    1
     6     2     3    2
     7     2     4   am
     8     4     5    1
     9     5    10    1
    10    10    11    1
    11    11    12    1
    12    12    13   ar
    13    13    14   ar
    14    14    15   ar
    15    15    16   ar
    16    16    17   ar
    17    17    18    1
    18     5     6    1
    19     6     7    2
    20     6     8   am
    21    23     8    1
    22    23    32    1
    23    32    33    2
    24    32    34   am
    25    34    36    1
    26    36    37    1
    27    36    38    1
    28    23    24    1
    29    24    25   ar
    30    25    26   ar
    31    26    27   ar
    32    27    28    1
    33    27    29   ar
    34    29    30   ar
    35    30    31    1
    36     8     1    1
    37    30    24   ar
    38    18    10    1
    39    17    12   ar
    40     4     9    1
    41    34    35    1
@<TRIPOS>MOLECULE
*****
 38 41 0 0 0
SMALL
GASTEIGER

@<TRIPOS>ATOM
      1 CA         64.8513   90.1650   14.3406 C.3     2  LEU2        0.1523
      2 C          65.8777   91.2226   14.6198 C.2     2  LEU2        0.2409
      3 O          66.5377   91.2907   15.9651 O.2     2  LEU2       -0.2733
      4 N          66.2441   92.2122   13.5537 N.am    1  UNK1       -0.2970
      5 C          65.5842   92.1441   12.2084 C.3     1  UNK1        0.1494
      6 C          64.5578   91.0865   11.9292 C.2     1  UNK1        0.2444
      7 O          63.8979   91.0184   10.5839 O.2     1  UNK1       -0.2731
      8 N          64.1914   90.0969   12.9953 N.am    2  LEU2       -0.2615
      9 H          66.9177   92.9063   13.7370 H       1  UNK1        0.1499
     10 C          65.9506   93.1337   11.1424 C.3     1  UNK1        0.0356
     11 C          66.9785   92.9328   10.0686 C.3     1  UNK1        0.0285
     12 C          67.0167   94.1728    9.2255 C.ar    1  UNK1       -0.0261
     13 C          67.8362   94.5461    8.0259 C.ar    1  UNK1       -0.0046
     14 C          67.6513   95.8867    7.3791 C.ar    1  UNK1       -0.0003
     15 C          66.6469   96.8541    7.9317 C.ar    1  UNK1       -0.0003
     16 C          65.8274   96.4807    9.1313 C.ar    1  UNK1       -0.0046
     17 C          66.0122   95.1401    9.7782 C.ar    1  UNK1       -0.0261
     18 C          65.3534   94.4979   10.9628 C.3     1  UNK1        0.0285
     19 CB         64.4849   89.1754   15.4066 C.3     2  LEU2        0.0292
     20 CD1        63.1199   90.9683   16.6998 C.3     2  LEU2        0.0001
     21 CG         63.4533   89.5297   16.4362 C.3     2  LEU2        0.0021
     22 CD2        62.7550   88.4455   17.2024 C.3     2  LEU2        0.0001
     23 C          63.1650   89.0392   12.7160 C.3     0  UNK0        0.1772
     24 C          63.4829   87.5973   12.9804 C.ar    0  UNK0        0.0321
     25 C          64.3180   87.2188   14.1676 C.ar    0  UNK0        0.0023
     26 C          64.6358   85.7769   14.4319 C.ar    0  UNK0        0.0295
     27 C          64.1186   84.7135   13.5090 C.ar    0  UNK0        0.1424
     28 F          64.4364   83.2716   13.7734 F       0  UNK0       -0.2041
     29 C          63.2835   85.0920   12.3219 C.ar    0  UNK0        0.0590
     30 C          62.9657   86.5339   12.0575 C.ar    0  UNK0        0.1404
     31 F          62.1306   86.9124   10.8703 F       0  UNK0       -0.2044
     32 C          61.8209   89.4235   12.1724 C.2     0  UNK0        0.2449
     33 O          60.6914   89.7285   13.1112 O.2     0  UNK0       -0.2729
     34 N          61.6061   89.5028   10.6900 N.am    0  UNK0       -0.3043
     35 H          62.3473   89.3026   10.0738 H       0  UNK0        0.1494
     36 C          60.2619   89.8870   10.1464 C.3     0  UNK0        0.0717
     37 C          59.8226   89.3800    8.8048 C.3     0  UNK0        0.0213
     38 C          59.3571   90.7784   10.9444 C.3     0  UNK0        0.0213
@<TRIPOS>BOND
     1    20    21    1
     2    21    22    1
     3    21    19    1
     4     1    19    1
     5     1     2    1
     6     2     3    2
     7     2     4   am
     8     4     5    1
     9     5    10    1
    10    10    11    1
    11    11    12    1
    12    12    13   ar
    13    13    14   ar
    14    14    15   ar
    15    15    16   ar
    16    16    17   ar
    17    17    18    1
    18     5     6    1
    19     6     7    2
    20     6     8   am
    21    23     8    1
    22    23    32    1
    23    32    33    2
    24    32    34   am
    25    34    36    1
    26    36    37    1
    27    36    38    1
    28    23    24    1
    29    24    25   ar
    30    25    26   ar
    31    26    27   ar
    32    27    28    1
    33    27    29   ar
    34    29    30   ar
    35    30    31    1
    36     8     1    1
    37    30    24   ar
    38    18    10    1
    39    17    12   ar
    40     4     9    1
    41    34    35    1
