@<TRIPOS>MOLECULE
*****
 30 33 0 0 0
SMALL
GASTEIGER

@<TRIPOS>ATOM
      1 C          63.1176   88.4398   12.4352 C.ar    1  UNL1        0.0888
      2 C          64.0804   89.5699   12.6496 C.ar    1  UNL1        0.0221
      3 C          63.8482   90.8906   11.9776 C.ar    1  UNL1        0.0483
      4 C          62.6534   91.0813   11.0910 C.ar    1  UNL1        0.0176
      5 C          61.6906   89.9512   10.8766 C.ar    1  UNL1        0.0383
      6 C          61.9227   88.6305   11.5486 C.ar    1  UNL1        0.1434
      7 N          64.8110   92.0208   12.1920 N.pl3   1  UNL1       -0.3028
      8 C          65.1281   92.9597   11.0660 C.3     1  UNL1        0.1231
      9 C          66.0908   94.0898   11.2804 C.3     1  UNL1        0.1636
     10 O          66.7364   94.2810   12.6208 O.3     1  UNL1       -0.3501
     11 C          66.4193   93.3420   13.7468 C.3     1  UNL1        0.1636
     12 C          65.4566   92.2119   13.5324 C.3     1  UNL1        0.1231
     13 O          64.0860   87.0610   14.4128 O.2     1  UNL1       -0.2697
     14 C          63.3497   87.1190   13.1072 C.2     1  UNL1        0.2525
     15 N          62.8455   85.8563   12.4738 N.am    1  UNL1       -0.2790
     16 H          62.3623   85.8944   11.6169 H       1  UNL1        0.1552
     17 C          63.0776   84.5355   13.1458 C.ar    1  UNL1        0.0734
     18 C          63.8999   83.4818   12.4650 C.ar    1  UNL1        0.0388
     19 C          64.1319   82.1610   13.1371 C.ar    1  UNL1        0.1235
     20 N          63.5418   81.8940   14.4900 N.ar    1  UNL1       -0.1463
     21 N          62.7195   82.9477   15.1708 N.ar    1  UNL1       -0.1450
     22 C          62.4875   84.2684   14.4988 C.ar    1  UNL1        0.1368
     23 O          60.9600   87.5003   11.3342 O.3     1  UNL1       -0.4705
     24 C          60.3297   87.2972    9.9883 C.3     1  UNL1        0.2320
     25 C          61.0115   86.4412    8.9624 C.ar    1  UNL1        0.0212
     26 C          62.4405   86.0296    9.1588 C.ar    1  UNL1       -0.0007
     27 C          63.1222   85.1736    8.1329 C.ar    1  UNL1       -0.0002
     28 C          62.3750   84.7292    6.9105 C.ar    1  UNL1       -0.0000
     29 C          60.9460   85.1408    6.7141 C.ar    1  UNL1       -0.0002
     30 C          60.2642   85.9968    7.7400 C.ar    1  UNL1       -0.0007
@<TRIPOS>BOND
     1    13    14    2
     2    14    15   am
     3    15    17    1
     4    17    18   ar
     5    18    19   ar
     6    19    20   ar
     7    20    21   ar
     8    21    22   ar
     9    14     1    1
    10     1     2   ar
    11     2     3   ar
    12     3     7    1
    13     7     8    1
    14     8     9    1
    15     9    10    1
    16    10    11    1
    17    11    12    1
    18     3     4   ar
    19     4     5   ar
    20     5     6   ar
    21     6    23    1
    22    23    24    1
    23    24    25    1
    24    25    26   ar
    25    26    27   ar
    26    27    28   ar
    27    28    29   ar
    28    29    30   ar
    29    22    17   ar
    30     6     1   ar
    31    30    25   ar
    32    12     7    1
    33    15    16    1
@<TRIPOS>MOLECULE
*****
 30 33 0 0 0
SMALL
GASTEIGER

@<TRIPOS>ATOM
      1 C          63.0940   88.5030   12.3720 C.ar    1  UNL1        0.0888
      2 C          64.0622   89.6350   12.5485 C.ar    1  UNL1        0.0221
      3 C          63.8182   90.9448   11.8594 C.ar    1  UNL1        0.0483
      4 C          62.6060   91.1226   10.9939 C.ar    1  UNL1        0.0176
      5 C          61.6378   89.9906   10.8175 C.ar    1  UNL1        0.0383
      6 C          61.8818   88.6808   11.5066 C.ar    1  UNL1        0.1434
      7 N          64.7864   92.0769   12.0358 N.pl3   1  UNL1       -0.3028
      8 C          65.4370   92.3067   13.3677 C.3     1  UNL1        0.1231
      9 C          66.4051   93.4387   13.5441 C.3     1  UNL1        0.1636
     10 O          66.7227   94.3409   12.3886 O.3     1  UNL1       -0.3501
     11 C          66.0721   94.1112   11.0568 C.3     1  UNL1        0.1636
     12 C          65.1039   92.9791   10.8803 C.3     1  UNL1        0.1231
     13 O          64.0951   87.1562   14.3555 O.2     1  UNL1       -0.2697
     14 C          63.3380   87.1931   13.0611 C.2     1  UNL1        0.2525
     15 N          62.8248   85.9203   12.4558 N.am    1  UNL1       -0.2790
     16 H          62.3279   85.9445   11.6063 H       1  UNL1        0.1552
     17 C          63.0688   84.6104   13.1449 C.ar    1  UNL1        0.0734
     18 C          63.9299   83.5692   12.4935 C.ar    1  UNL1        0.0388
     19 C          64.1738   82.2594   13.1826 C.ar    1  UNL1        0.1235
     20 N          63.5566   81.9908   14.5231 N.ar    1  UNL1       -0.1463
     21 N          62.6955   83.0319   15.1745 N.ar    1  UNL1       -0.1450
     22 C          62.4516   84.3417   14.4854 C.ar    1  UNL1        0.1368
     23 O          60.9136   87.5487   11.3302 O.3     1  UNL1       -0.4705
     24 C          60.2767   87.3080    9.9937 C.3     1  UNL1        0.2320
     25 C          60.9719   86.4552    8.9742 C.ar    1  UNL1        0.0212
     26 C          60.2411   86.0153    7.7403 C.ar    1  UNL1       -0.0007
     27 C          60.9364   85.1625    6.7208 C.ar    1  UNL1       -0.0002
     28 C          62.3625   84.7496    6.9352 C.ar    1  UNL1       -0.0000
     29 C          63.0932   85.1896    8.1691 C.ar    1  UNL1       -0.0002
     30 C          62.3980   86.0423    9.1885 C.ar    1  UNL1       -0.0007
@<TRIPOS>BOND
     1    13    14    2
     2    14    15   am
     3    15    17    1
     4    17    18   ar
     5    18    19   ar
     6    19    20   ar
     7    20    21   ar
     8    21    22   ar
     9    14     1    1
    10     1     2   ar
    11     2     3   ar
    12     3     7    1
    13     7     8    1
    14     8     9    1
    15     9    10    1
    16    10    11    1
    17    11    12    1
    18     3     4   ar
    19     4     5   ar
    20     5     6   ar
    21     6    23    1
    22    23    24    1
    23    24    25    1
    24    25    26   ar
    25    26    27   ar
    26    27    28   ar
    27    28    29   ar
    28    29    30   ar
    29    22    17   ar
    30     6     1   ar
    31    30    25   ar
    32    12     7    1
    33    15    16    1
@<TRIPOS>MOLECULE
*****
 30 33 0 0 0
SMALL
GASTEIGER

@<TRIPOS>ATOM
      1 C          63.3869   88.1623   12.9627 C.ar    1  UNL1        0.0888
      2 C          64.2979   89.2330   13.4856 C.ar    1  UNL1        0.0221
      3 C          64.1846   90.6348   12.9639 C.ar    1  UNL1        0.0483
      4 C          63.1603   90.9657   11.9192 C.ar    1  UNL1        0.0176
      5 C          62.2493   89.8949   11.3963 C.ar    1  UNL1        0.0383
      6 C          62.3626   88.4932   11.9180 C.ar    1  UNL1        0.1434
      7 N          65.0956   91.7057   13.4868 N.pl3   1  UNL1       -0.3028
      8 C          65.5791   92.7916   12.5719 C.3     1  UNL1        0.1231
      9 C          66.4901   93.8624   13.0947 C.3     1  UNL1        0.1636
     10 O          66.9174   93.8474   14.5324 O.3     1  UNL1       -0.3501
     11 C          66.4339   92.7615   15.4473 C.3     1  UNL1        0.1636
     12 C          65.5229   91.6906   14.9245 C.3     1  UNL1        0.1231
     13 O          64.0156   86.5159   14.8717 O.2     1  UNL1       -0.2697
     14 C          63.5002   86.7604   13.4844 C.2     1  UNL1        0.2525
     15 N          63.0982   85.6032   12.6189 N.am    1  UNL1       -0.2790
     16 H          62.7599   85.7638   11.7083 H       1  UNL1        0.1552
     17 C          63.2115   84.2014   13.1406 C.ar    1  UNL1        0.0734
     18 C          64.0322   83.1889   12.3982 C.ar    1  UNL1        0.0388
     19 C          64.1454   81.7872   12.9199 C.ar    1  UNL1        0.1235
     20 N          63.4380   81.3979   14.1841 N.ar    1  UNL1       -0.1463
     21 N          62.6173   82.4105   14.9265 N.ar    1  UNL1       -0.1450
     22 C          62.5041   83.8122   14.4047 C.ar    1  UNL1        0.1368
     23 O          61.4516   87.4223   11.3951 O.3     1  UNL1       -0.4705
     24 C          60.8646   87.5426   10.0200 C.3     1  UNL1        0.2320
     25 C          61.2702   86.5791    8.9444 C.ar    1  UNL1        0.0212
     26 C          60.2978   86.2080    7.8642 C.ar    1  UNL1       -0.0007
     27 C          60.7035   85.2445    6.7885 C.ar    1  UNL1       -0.0002
     28 C          62.0815   84.6521    6.7930 C.ar    1  UNL1       -0.0000
     29 C          63.0539   85.0232    7.8732 C.ar    1  UNL1       -0.0002
     30 C          62.6483   85.9867    8.9488 C.ar    1  UNL1       -0.0007
@<TRIPOS>BOND
     1    13    14    2
     2    14    15   am
     3    15    17    1
     4    17    18   ar
     5    18    19   ar
     6    19    20   ar
     7    20    21   ar
     8    21    22   ar
     9    14     1    1
    10     1     2   ar
    11     2     3   ar
    12     3     7    1
    13     7     8    1
    14     8     9    1
    15     9    10    1
    16    10    11    1
    17    11    12    1
    18     3     4   ar
    19     4     5   ar
    20     5     6   ar
    21     6    23    1
    22    23    24    1
    23    24    25    1
    24    25    26   ar
    25    26    27   ar
    26    27    28   ar
    27    28    29   ar
    28    29    30   ar
    29    22    17   ar
    30     6     1   ar
    31    30    25   ar
    32    12     7    1
    33    15    16    1
@<TRIPOS>MOLECULE
*****
 30 33 0 0 0
SMALL
GASTEIGER

@<TRIPOS>ATOM
      1 C          63.6949   90.6221   12.1060 C.ar    1  UNL1        0.0888
      2 C          64.3634   91.7019   11.3079 C.ar    1  UNL1        0.0221
      3 C          65.4861   92.4936   11.9101 C.ar    1  UNL1        0.0483
      4 C          65.9403   92.2055   13.3103 C.ar    1  UNL1        0.0176
      5 C          65.2717   91.1256   14.1084 C.ar    1  UNL1        0.0383
      6 C          64.1490   90.3340   13.5062 C.ar    1  UNL1        0.1434
      7 N          66.1548   93.5735   11.1120 N.pl3   1  UNL1       -0.3028
      8 C          65.9526   95.0132   11.4811 C.3     1  UNL1        0.1231
      9 C          66.6212   96.0931   10.6831 C.3     1  UNL1        0.1636
     10 O          67.4919   95.7332    9.5160 O.3     1  UNL1       -0.3501
     11 C          67.6941   94.2934    9.1468 C.3     1  UNL1        0.1636
     12 C          67.0255   93.2136    9.9449 C.3     1  UNL1        0.1231
     13 O          61.3093   89.6081   12.2823 O.2     1  UNL1       -0.2697
     14 C          62.5721   89.8303   11.5038 C.2     1  UNL1        0.2525
     15 N          62.7121   89.2608   10.1233 N.am    1  UNL1       -0.2790
     16 H          63.5409   89.4066    9.6123 H       1  UNL1        0.1552
     17 C          61.5893   88.4690    9.5211 C.ar    1  UNL1        0.0734
     18 C          61.6361   86.9699    9.5367 C.ar    1  UNL1        0.0388
     19 C          60.5133   86.1782    8.9346 C.ar    1  UNL1        0.1235
     20 N          59.3438   86.8857    8.3168 N.ar    1  UNL1       -0.1463
     21 N          59.2970   88.3848    8.3012 N.ar    1  UNL1       -0.1450
     22 C          60.4197   89.1765    8.9033 C.ar    1  UNL1        0.1368
     23 O          63.4804   89.2541   14.3043 O.3     1  UNL1       -0.4705
     24 C          64.2920   88.1239   14.8647 C.3     1  UNL1        0.2320
     25 C          64.1666   86.7484   14.2797 C.ar    1  UNL1        0.0212
     26 C          64.8913   85.5963   14.9101 C.ar    1  UNL1       -0.0007
     27 C          64.7659   84.2208   14.3251 C.ar    1  UNL1       -0.0002
     28 C          63.9159   83.9974   13.1096 C.ar    1  UNL1       -0.0000
     29 C          63.1912   85.1495   12.4791 C.ar    1  UNL1       -0.0002
     30 C          63.3165   86.5249   13.0641 C.ar    1  UNL1       -0.0007
@<TRIPOS>BOND
     1    13    14    2
     2    14    15   am
     3    15    17    1
     4    17    18   ar
     5    18    19   ar
     6    19    20   ar
     7    20    21   ar
     8    21    22   ar
     9    14     1    1
    10     1     2   ar
    11     2     3   ar
    12     3     7    1
    13     7     8    1
    14     8     9    1
    15     9    10    1
    16    10    11    1
    17    11    12    1
    18     3     4   ar
    19     4     5   ar
    20     5     6   ar
    21     6    23    1
    22    23    24    1
    23    24    25    1
    24    25    26   ar
    25    26    27   ar
    26    27    28   ar
    27    28    29   ar
    28    29    30   ar
    29    22    17   ar
    30     6     1   ar
    31    30    25   ar
    32    12     7    1
    33    15    16    1
@<TRIPOS>MOLECULE
*****
 30 33 0 0 0
SMALL
GASTEIGER

@<TRIPOS>ATOM
      1 C          63.6825   87.5222   13.3159 C.ar    1  UNL1        0.0888
      2 C          64.3522   88.4947   14.2409 C.ar    1  UNL1        0.0221
      3 C          64.3439   89.9604   13.9221 C.ar    1  UNL1        0.0483
      4 C          63.6659   90.4536   12.6784 C.ar    1  UNL1        0.0176
      5 C          62.9962   89.4811   11.7533 C.ar    1  UNL1        0.0383
      6 C          63.0045   88.0154   12.0721 C.ar    1  UNL1        0.1434
      7 N          65.0136   90.9329   14.8472 N.pl3   1  UNL1       -0.3028
      8 C          66.4314   91.3529   14.5953 C.3     1  UNL1        0.1231
      9 C          67.1012   92.3254   15.5203 C.3     1  UNL1        0.1636
     10 O          66.3531   92.8779   16.6972 O.3     1  UNL1       -0.3501
     11 C          64.9353   92.4579   16.9491 C.3     1  UNL1        0.1636
     12 C          64.2656   91.4854   16.0241 C.3     1  UNL1        0.1231
     13 O          64.6505   85.5158   14.6528 O.2     1  UNL1       -0.2697
     14 C          63.6909   86.0564   13.6346 C.2     1  UNL1        0.2525
     15 N          62.7395   85.1314   12.9351 N.am    1  UNL1       -0.2790
     16 H          62.1097   85.4863   12.2669 H       1  UNL1        0.1552
     17 C          62.7478   83.6656   13.2539 C.ar    1  UNL1        0.0734
     18 C          62.9871   82.6626   12.1646 C.ar    1  UNL1        0.0388
     19 C          62.9954   81.1969   12.4833 C.ar    1  UNL1        0.1235
     20 N          62.7644   80.7343   13.8914 N.ar    1  UNL1       -0.1463
     21 N          62.5252   81.7373   14.9807 N.ar    1  UNL1       -0.1450
     22 C          62.5169   83.2030   14.6619 C.ar    1  UNL1        0.1368
     23 O          62.3348   87.0428   11.1470 O.3     1  UNL1       -0.4705
     24 C          60.8513   87.1093   10.9350 C.3     1  UNL1        0.2320
     25 C          60.3017   87.5967    9.6272 C.ar    1  UNL1        0.0212
     26 C          59.6683   86.6286    8.6724 C.ar    1  UNL1       -0.0007
     27 C          59.1186   87.1160    7.3646 C.ar    1  UNL1       -0.0002
     28 C          59.2024   88.5714    7.0116 C.ar    1  UNL1       -0.0000
     29 C          59.8359   89.5395    7.9663 C.ar    1  UNL1       -0.0002
     30 C          60.3855   89.0521    9.2741 C.ar    1  UNL1       -0.0007
@<TRIPOS>BOND
     1    13    14    2
     2    14    15   am
     3    15    17    1
     4    17    18   ar
     5    18    19   ar
     6    19    20   ar
     7    20    21   ar
     8    21    22   ar
     9    14     1    1
    10     1     2   ar
    11     2     3   ar
    12     3     7    1
    13     7     8    1
    14     8     9    1
    15     9    10    1
    16    10    11    1
    17    11    12    1
    18     3     4   ar
    19     4     5   ar
    20     5     6   ar
    21     6    23    1
    22    23    24    1
    23    24    25    1
    24    25    26   ar
    25    26    27   ar
    26    27    28   ar
    27    28    29   ar
    28    29    30   ar
    29    22    17   ar
    30     6     1   ar
    31    30    25   ar
    32    12     7    1
    33    15    16    1
@<TRIPOS>MOLECULE
*****
 30 33 0 0 0
SMALL
GASTEIGER

@<TRIPOS>ATOM
      1 C          63.2681   88.6205   12.2613 C.ar    1  UNL1        0.0888
      2 C          63.9046   89.9648   12.4550 C.ar    1  UNL1        0.0221
      3 C          64.7443   90.2290   13.6695 C.ar    1  UNL1        0.0483
      4 C          64.9474   89.1489   14.6903 C.ar    1  UNL1        0.0176
      5 C          64.3108   87.8046   14.4966 C.ar    1  UNL1        0.0383
      6 C          63.4712   87.5404   13.2821 C.ar    1  UNL1        0.1434
      7 N          65.3809   91.5734   13.8632 N.pl3   1  UNL1       -0.3028
      8 C          65.4792   92.5296   12.7117 C.3     1  UNL1        0.1231
      9 C          66.1157   93.8739   12.9054 C.3     1  UNL1        0.1636
     10 O          66.6541   94.2620   14.2505 O.3     1  UNL1       -0.3501
     11 C          66.5559   93.3058   15.4020 C.3     1  UNL1        0.1636
     12 C          65.9193   91.9615   15.2084 C.3     1  UNL1        0.1231
     13 O          62.1590   89.4594   10.0667 O.2     1  UNL1       -0.2697
     14 C          62.4284   88.3562   11.0467 C.2     1  UNL1        0.2525
     15 N          61.8581   86.9889   10.8122 N.am    1  UNL1       -0.2790
     16 H          62.0349   86.2648   11.4555 H       1  UNL1        0.1552
     17 C          61.0184   86.7246    9.5977 C.ar    1  UNL1        0.0734
     18 C          61.5538   85.8703    8.4871 C.ar    1  UNL1        0.0388
     19 C          60.7141   85.6061    7.2726 C.ar    1  UNL1        0.1235
     20 N          59.3389   86.1961    7.1687 N.ar    1  UNL1       -0.1463
     21 N          58.8035   87.0504    8.2793 N.ar    1  UNL1       -0.1450
     22 C          59.6432   87.3146    9.4937 C.ar    1  UNL1        0.1368
     23 O          62.8346   86.1960   13.0884 O.3     1  UNL1       -0.4705
     24 C          63.5855   84.9506   13.4558 C.3     1  UNL1        0.2320
     25 C          63.4665   83.7234   12.6016 C.ar    1  UNL1        0.0212
     26 C          64.0638   83.7065   11.2258 C.ar    1  UNL1       -0.0007
     27 C          63.9447   82.4792   10.3715 C.ar    1  UNL1       -0.0002
     28 C          63.2283   81.2690   10.8930 C.ar    1  UNL1       -0.0000
     29 C          62.6309   81.2860   12.2689 C.ar    1  UNL1       -0.0002
     30 C          62.7500   82.5131   13.1231 C.ar    1  UNL1       -0.0007
@<TRIPOS>BOND
     1    13    14    2
     2    14    15   am
     3    15    17    1
     4    17    18   ar
     5    18    19   ar
     6    19    20   ar
     7    20    21   ar
     8    21    22   ar
     9    14     1    1
    10     1     2   ar
    11     2     3   ar
    12     3     7    1
    13     7     8    1
    14     8     9    1
    15     9    10    1
    16    10    11    1
    17    11    12    1
    18     3     4   ar
    19     4     5   ar
    20     5     6   ar
    21     6    23    1
    22    23    24    1
    23    24    25    1
    24    25    26   ar
    25    26    27   ar
    26    27    28   ar
    27    28    29   ar
    28    29    30   ar
    29    22    17   ar
    30     6     1   ar
    31    30    25   ar
    32    12     7    1
    33    15    16    1
@<TRIPOS>MOLECULE
*****
 30 33 0 0 0
SMALL
GASTEIGER

@<TRIPOS>ATOM
      1 C          63.1921   87.2981   12.6239 C.ar    1  UNL1        0.0888
      2 C          62.3221   87.7995   11.5096 C.ar    1  UNL1        0.0221
      3 C          61.6912   86.8289   10.5559 C.ar    1  UNL1        0.0483
      4 C          61.9301   85.3567   10.7165 C.ar    1  UNL1        0.0176
      5 C          62.8001   84.8553   11.8308 C.ar    1  UNL1        0.0383
      6 C          63.4310   85.8260   12.7845 C.ar    1  UNL1        0.1434
      7 N          60.8212   87.3303    9.4415 N.pl3   1  UNL1       -0.3028
      8 C          60.7181   88.8028    9.1751 C.3     1  UNL1        0.1231
      9 C          59.8481   89.3042    8.0608 C.3     1  UNL1        0.1636
     10 O          59.0813   88.3331    7.2129 O.3     1  UNL1       -0.3501
     11 C          59.1844   86.8606    7.4794 C.3     1  UNL1        0.1636
     12 C          60.0543   86.3592    8.5937 C.3     1  UNL1        0.1231
     13 O          64.5600   87.7644   14.7830 O.2     1  UNL1       -0.2697
     14 C          63.8231   88.2688   13.5777 C.2     1  UNL1        0.2525
     15 N          63.7173   89.7437   13.3262 N.am    1  UNL1       -0.2790
     16 H          63.2337   90.0747   12.5351 H       1  UNL1        0.1552
     17 C          64.3483   90.7144   14.2800 C.ar    1  UNL1        0.0734
     18 C          65.6116   91.4273   13.8982 C.ar    1  UNL1        0.0388
     19 C          66.2426   92.3979   14.8520 C.ar    1  UNL1        0.1235
     20 N          65.6102   92.6557   16.1875 N.ar    1  UNL1       -0.1463
     21 N          64.3469   91.9428   16.5693 N.ar    1  UNL1       -0.1450
     22 C          63.7160   90.9722   15.6156 C.ar    1  UNL1        0.1368
     23 O          64.3010   85.3246   13.8989 O.3     1  UNL1       -0.4705
     24 C          63.7743   84.2986   14.8580 C.3     1  UNL1        0.2320
     25 C          63.2471   82.9919   14.3437 C.ar    1  UNL1        0.0212
     26 C          61.8592   82.5499   14.7019 C.ar    1  UNL1       -0.0007
     27 C          61.3320   81.2432   14.1875 C.ar    1  UNL1       -0.0002
     28 C          62.1927   80.3785   13.3150 C.ar    1  UNL1       -0.0000
     29 C          63.5807   80.8204   12.9568 C.ar    1  UNL1       -0.0002
     30 C          64.1079   82.1271   13.4711 C.ar    1  UNL1       -0.0007
@<TRIPOS>BOND
     1    13    14    2
     2    14    15   am
     3    15    17    1
     4    17    18   ar
     5    18    19   ar
     6    19    20   ar
     7    20    21   ar
     8    21    22   ar
     9    14     1    1
    10     1     2   ar
    11     2     3   ar
    12     3     7    1
    13     7     8    1
    14     8     9    1
    15     9    10    1
    16    10    11    1
    17    11    12    1
    18     3     4   ar
    19     4     5   ar
    20     5     6   ar
    21     6    23    1
    22    23    24    1
    23    24    25    1
    24    25    26   ar
    25    26    27   ar
    26    27    28   ar
    27    28    29   ar
    28    29    30   ar
    29    22    17   ar
    30     6     1   ar
    31    30    25   ar
    32    12     7    1
    33    15    16    1
@<TRIPOS>MOLECULE
*****
 30 33 0 0 0
SMALL
GASTEIGER

@<TRIPOS>ATOM
      1 C          63.1290   87.8813   12.3752 C.ar    1  UNL1        0.0888
      2 C          63.5634   89.1684   13.0113 C.ar    1  UNL1        0.0221
      3 C          64.3012   89.1480   14.3171 C.ar    1  UNL1        0.0483
      4 C          64.6046   87.8405   14.9868 C.ar    1  UNL1        0.0176
      5 C          64.1702   86.5535   14.3507 C.ar    1  UNL1        0.0383
      6 C          63.4324   86.5739   13.0449 C.ar    1  UNL1        0.1434
      7 N          64.7357   90.4351   14.9533 N.pl3   1  UNL1       -0.3028
      8 C          63.9512   91.0093   16.0956 C.3     1  UNL1        0.1231
      9 C          64.3856   92.2964   16.7318 C.3     1  UNL1        0.1636
     10 O          65.6044   93.0092   16.2257 O.3     1  UNL1       -0.3501
     11 C          66.3889   92.4350   15.0834 C.3     1  UNL1        0.1636
     12 C          65.9545   91.1479   14.4472 C.3     1  UNL1        0.1231
     13 O          62.6938   88.9628   10.0533 O.2     1  UNL1       -0.2697
     14 C          62.3911   87.9017   11.0694 C.2     1  UNL1        0.2525
     15 N          61.3505   86.8609   10.7796 N.am    1  UNL1       -0.2790
     16 H          61.1518   86.1645   11.4465 H       1  UNL1        0.1552
     17 C          60.6126   86.8813    9.4737 C.ar    1  UNL1        0.0734
     18 C          59.7182   88.0369    9.1356 C.ar    1  UNL1        0.0388
     19 C          58.9803   88.0572    7.8299 C.ar    1  UNL1        0.1235
     20 N          59.1370   86.9219    6.8621 N.ar    1  UNL1       -0.1463
     21 N          60.0315   85.7662    7.2002 N.ar    1  UNL1       -0.1450
     22 C          60.7693   85.7459    8.5060 C.ar    1  UNL1        0.1368
     23 O          62.9979   85.2867   12.4087 O.3     1  UNL1       -0.4705
     24 C          63.8365   84.0528   12.5642 C.3     1  UNL1        0.2320
     25 C          63.1838   82.7346   12.8578 C.ar    1  UNL1        0.0212
     26 C          63.3592   81.5836   11.9119 C.ar    1  UNL1       -0.0007
     27 C          62.7065   80.2654   12.2056 C.ar    1  UNL1       -0.0002
     28 C          61.8784   80.0980   13.4450 C.ar    1  UNL1       -0.0000
     29 C          61.7031   81.2489   14.3909 C.ar    1  UNL1       -0.0002
     30 C          62.3557   82.5672   14.0973 C.ar    1  UNL1       -0.0007
@<TRIPOS>BOND
     1    13    14    2
     2    14    15   am
     3    15    17    1
     4    17    18   ar
     5    18    19   ar
     6    19    20   ar
     7    20    21   ar
     8    21    22   ar
     9    14     1    1
    10     1     2   ar
    11     2     3   ar
    12     3     7    1
    13     7     8    1
    14     8     9    1
    15     9    10    1
    16    10    11    1
    17    11    12    1
    18     3     4   ar
    19     4     5   ar
    20     5     6   ar
    21     6    23    1
    22    23    24    1
    23    24    25    1
    24    25    26   ar
    25    26    27   ar
    26    27    28   ar
    27    28    29   ar
    28    29    30   ar
    29    22    17   ar
    30     6     1   ar
    31    30    25   ar
    32    12     7    1
    33    15    16    1
@<TRIPOS>MOLECULE
*****
 30 33 0 0 0
SMALL
GASTEIGER

@<TRIPOS>ATOM
      1 C          63.0631   88.5386   12.5215 C.ar    1  UNL1        0.0888
      2 C          62.1722   88.7453   11.3326 C.ar    1  UNL1        0.0221
      3 C          61.5727   87.5632   10.6302 C.ar    1  UNL1        0.0483
      4 C          61.8641   86.1746   11.1167 C.ar    1  UNL1        0.0176
      5 C          62.7550   85.9680   12.3056 C.ar    1  UNL1        0.0383
      6 C          63.3545   87.1500   13.0080 C.ar    1  UNL1        0.1434
      7 N          60.6817   87.7698    9.4412 N.pl3   1  UNL1       -0.3028
      8 C          60.0058   86.5956    8.7975 C.3     1  UNL1        0.1231
      9 C          59.1149   86.8021    7.6086 C.3     1  UNL1        0.1636
     10 O          58.8999   88.1829    7.0634 O.3     1  UNL1       -0.3501
     11 C          59.5757   89.3571    7.7072 C.3     1  UNL1        0.1636
     12 C          60.4667   89.1506    8.8961 C.3     1  UNL1        0.1231
     13 O          62.9747   90.3112   14.4189 O.2     1  UNL1       -0.2697
     14 C          63.6626   89.7207   13.2239 C.2     1  UNL1        0.2525
     15 N          64.9500   90.3122   12.7314 N.am    1  UNL1       -0.2790
     16 H          65.4015   89.9246   11.9470 H       1  UNL1        0.1552
     17 C          65.5495   91.4943   13.4338 C.ar    1  UNL1        0.0734
     18 C          65.7536   92.7826   12.6932 C.ar    1  UNL1        0.0388
     19 C          66.3531   93.9646   13.3957 C.ar    1  UNL1        0.1235
     20 N          66.7486   93.8582   14.8387 N.ar    1  UNL1       -0.1463
     21 N          66.5445   92.5699   15.5793 N.ar    1  UNL1       -0.1450
     22 C          65.9450   91.3879   14.8768 C.ar    1  UNL1        0.1368
     23 O          64.2455   86.9434   14.1970 O.3     1  UNL1       -0.4705
     24 C          63.9935   85.7988   15.1331 C.3     1  UNL1        0.2320
     25 C          63.7027   84.4327   14.5862 C.ar    1  UNL1        0.0212
     26 C          62.4710   83.6965   15.0230 C.ar    1  UNL1       -0.0007
     27 C          62.1802   82.3303   14.4761 C.ar    1  UNL1       -0.0002
     28 C          63.1211   81.7004   13.4924 C.ar    1  UNL1       -0.0000
     29 C          64.3529   82.4366   13.0555 C.ar    1  UNL1       -0.0002
     30 C          64.6437   83.8027   13.6024 C.ar    1  UNL1       -0.0007
@<TRIPOS>BOND
     1    13    14    2
     2    14    15   am
     3    15    17    1
     4    17    18   ar
     5    18    19   ar
     6    19    20   ar
     7    20    21   ar
     8    21    22   ar
     9    14     1    1
    10     1     2   ar
    11     2     3   ar
    12     3     7    1
    13     7     8    1
    14     8     9    1
    15     9    10    1
    16    10    11    1
    17    11    12    1
    18     3     4   ar
    19     4     5   ar
    20     5     6   ar
    21     6    23    1
    22    23    24    1
    23    24    25    1
    24    25    26   ar
    25    26    27   ar
    26    27    28   ar
    27    28    29   ar
    28    29    30   ar
    29    22    17   ar
    30     6     1   ar
    31    30    25   ar
    32    12     7    1
    33    15    16    1
