@<TRIPOS>MOLECULE
*****
 26 29 0 0 0
SMALL
GASTEIGER

@<TRIPOS>ATOM
      1 O          55.1374   93.0583   -1.6881 O.2     1  UNL1       -0.2698
      2 C          56.1334   94.1799   -1.7048 C.2     1  UNL1        0.2510
      3 N          55.7500   95.5150   -2.2709 N.am    1  UNL1       -0.2803
      4 H          56.4036   96.2511   -2.2819 H       1  UNL1        0.1552
      5 C          54.3706   95.7285   -2.8203 C.ar    1  UNL1        0.0520
      6 C          53.1914   95.7636   -1.8938 C.ar    1  UNL1        0.0148
      7 C          51.8121   95.9771   -2.4431 C.ar    1  UNL1        0.0028
      8 C          51.6118   96.1555   -3.9190 C.ar    1  UNL1        0.0178
      9 C          50.2325   96.3691   -4.4683 C.ar    1  UNL1        0.0031
     10 C          50.0323   96.5475   -5.9441 C.ar    1  UNL1        0.0207
     11 C          51.2115   96.5124   -6.8706 C.ar    1  UNL1        0.0988
     12 N          52.5908   96.2988   -6.3213 N.ar    1  UNL1       -0.2438
     13 C          52.7910   96.1204   -4.8455 C.ar    1  UNL1        0.0825
     14 C          54.1704   95.9069   -4.2961 C.ar    1  UNL1        0.0338
     15 C          57.5127   93.9663   -1.1554 C.ar    1  UNL1        0.0728
     16 C          58.0831   92.5811   -1.0783 C.ar    1  UNL1        0.0076
     17 C          59.4624   92.3676   -0.5289 C.ar    1  UNL1        0.0193
     18 C          60.2714   93.5392   -0.0567 C.ar    1  UNL1        0.0813
     19 N          59.7010   94.9244   -0.1338 N.ar    1  UNL1       -0.2437
     20 C          58.3216   95.1379   -0.6832 C.ar    1  UNL1        0.1033
     21 C          61.6507   93.3256    0.4927 C.ar    1  UNL1        0.0177
     22 C          62.8410   93.8799   -0.2325 C.ar    1  UNL1        0.0015
     23 C          64.2203   93.6664    0.3169 C.ar    1  UNL1        0.0000
     24 C          64.4094   92.8985    1.5915 C.ar    1  UNL1        0.0000
     25 C          63.2191   92.3442    2.3168 C.ar    1  UNL1        0.0000
     26 C          61.8397   92.5578    1.7673 C.ar    1  UNL1        0.0015
@<TRIPOS>BOND
     1     1     2    2
     2     2     3   am
     3     3     5    1
     4     5     6   ar
     5     6     7   ar
     6     7     8   ar
     7     8     9   ar
     8     9    10   ar
     9    10    11   ar
    10    11    12   ar
    11    12    13   ar
    12    13    14   ar
    13     2    15    1
    14    15    16   ar
    15    16    17   ar
    16    17    18   ar
    17    18    21    1
    18    21    22   ar
    19    22    23   ar
    20    23    24   ar
    21    24    25   ar
    22    25    26   ar
    23    18    19   ar
    24    19    20   ar
    25    14     5   ar
    26    20    15   ar
    27    13     8   ar
    28    26    21   ar
    29     3     4    1
@<TRIPOS>MOLECULE
*****
 26 29 0 0 0
SMALL
GASTEIGER

@<TRIPOS>ATOM
      1 O          62.7994   90.7505   12.5843 O.2     1  UNL1       -0.2698
      2 C          63.9120   89.7745   12.8287 C.2     1  UNL1        0.2510
      3 N          65.3223   90.2652   12.9706 N.am    1  UNL1       -0.2803
      4 H          66.0526   89.6247   13.1311 H       1  UNL1        0.1552
      5 C          65.6201   91.7318   12.8681 C.ar    1  UNL1        0.0520
      6 C          66.1521   92.4740   14.0581 C.ar    1  UNL1        0.0148
      7 C          66.4499   93.9406   13.9557 C.ar    1  UNL1        0.0028
      8 C          66.2157   94.6650   12.6632 C.ar    1  UNL1        0.0178
      9 C          66.5134   96.1315   12.5607 C.ar    1  UNL1        0.0031
     10 C          66.2793   96.8558   11.2683 C.ar    1  UNL1        0.0207
     11 C          65.7473   96.1136   10.0782 C.ar    1  UNL1        0.0988
     12 N          65.4495   94.6470   10.1807 N.ar    1  UNL1       -0.2438
     13 C          65.6837   93.9227   11.4732 C.ar    1  UNL1        0.0825
     14 C          65.3859   92.4561   11.5757 C.ar    1  UNL1        0.0338
     15 C          63.6142   88.3080   12.9312 C.ar    1  UNL1        0.0728
     16 C          64.1760   87.5062   14.0676 C.ar    1  UNL1        0.0076
     17 C          63.8782   86.0397   14.1701 C.ar    1  UNL1        0.0193
     18 C          63.0185   85.3749   13.1361 C.ar    1  UNL1        0.0813
     19 N          62.4567   86.1767   11.9997 N.ar    1  UNL1       -0.2437
     20 C          62.7546   87.6433   11.8972 C.ar    1  UNL1        0.1033
     21 C          62.7207   83.9084   13.2386 C.ar    1  UNL1        0.0177
     22 C          62.2782   83.3225   14.5467 C.ar    1  UNL1        0.0015
     23 C          61.9804   81.8560   14.6492 C.ar    1  UNL1        0.0000
     24 C          62.1251   80.9752   13.4436 C.ar    1  UNL1        0.0000
     25 C          62.5676   81.5610   12.1355 C.ar    1  UNL1        0.0000
     26 C          62.8654   83.0277   12.0331 C.ar    1  UNL1        0.0015
@<TRIPOS>BOND
     1     1     2    2
     2     2     3   am
     3     3     5    1
     4     5     6   ar
     5     6     7   ar
     6     7     8   ar
     7     8     9   ar
     8     9    10   ar
     9    10    11   ar
    10    11    12   ar
    11    12    13   ar
    12    13    14   ar
    13     2    15    1
    14    15    16   ar
    15    16    17   ar
    16    17    18   ar
    17    18    21    1
    18    21    22   ar
    19    22    23   ar
    20    23    24   ar
    21    24    25   ar
    22    25    26   ar
    23    18    19   ar
    24    19    20   ar
    25    14     5   ar
    26    20    15   ar
    27    13     8   ar
    28    26    21   ar
    29     3     4    1
@<TRIPOS>MOLECULE
*****
 26 29 0 0 0
SMALL
GASTEIGER

@<TRIPOS>ATOM
      1 O          69.9555   77.7451   12.2217 O.2     1  UNL1       -0.2698
      2 C          71.2614   77.1026   12.5849 C.2     1  UNL1        0.2510
      3 N          72.5522   77.7246   12.1412 N.am    1  UNL1       -0.2803
      4 H          73.4094   77.3030   12.3795 H       1  UNL1        0.1552
      5 C          72.5371   78.9891   11.3343 C.ar    1  UNL1        0.0520
      6 C          72.8603   80.2998   11.9881 C.ar    1  UNL1        0.0148
      7 C          72.8452   81.5643   11.1813 C.ar    1  UNL1        0.0028
      8 C          72.5069   81.5180    9.7207 C.ar    1  UNL1        0.0178
      9 C          72.4918   82.7824    8.9139 C.ar    1  UNL1        0.0031
     10 C          72.1535   82.7361    7.4533 C.ar    1  UNL1        0.0207
     11 C          71.8303   81.4253    6.7995 C.ar    1  UNL1        0.0988
     12 N          71.8454   80.1609    7.6063 N.ar    1  UNL1       -0.2438
     13 C          72.1837   80.2072    9.0669 C.ar    1  UNL1        0.0825
     14 C          72.1988   78.9428    9.8737 C.ar    1  UNL1        0.0338
     15 C          71.2765   75.8382   13.3917 C.ar    1  UNL1        0.0728
     16 C          71.7303   74.5535   12.7643 C.ar    1  UNL1        0.0076
     17 C          71.7453   73.2891   13.5712 C.ar    1  UNL1        0.0193
     18 C          71.3066   73.3094   15.0055 C.ar    1  UNL1        0.0813
     19 N          70.8527   74.5941   15.6329 N.ar    1  UNL1       -0.2437
     20 C          70.8377   75.8585   14.8259 C.ar    1  UNL1        0.1033
     21 C          71.3216   72.0450   15.8123 C.ar    1  UNL1        0.0177
     22 C          71.7508   70.7554   15.1777 C.ar    1  UNL1        0.0015
     23 C          71.7659   69.4910   15.9845 C.ar    1  UNL1        0.0000
     24 C          71.3517   69.5161   17.4260 C.ar    1  UNL1        0.0000
     25 C          70.9225   70.8057   18.0606 C.ar    1  UNL1        0.0000
     26 C          70.9075   72.0702   17.2537 C.ar    1  UNL1        0.0015
@<TRIPOS>BOND
     1     1     2    2
     2     2     3   am
     3     3     5    1
     4     5     6   ar
     5     6     7   ar
     6     7     8   ar
     7     8     9   ar
     8     9    10   ar
     9    10    11   ar
    10    11    12   ar
    11    12    13   ar
    12    13    14   ar
    13     2    15    1
    14    15    16   ar
    15    16    17   ar
    16    17    18   ar
    17    18    21    1
    18    21    22   ar
    19    22    23   ar
    20    23    24   ar
    21    24    25   ar
    22    25    26   ar
    23    18    19   ar
    24    19    20   ar
    25    14     5   ar
    26    20    15   ar
    27    13     8   ar
    28    26    21   ar
    29     3     4    1
@<TRIPOS>MOLECULE
*****
 26 29 0 0 0
SMALL
GASTEIGER

@<TRIPOS>ATOM
      1 O          60.5786   86.9818   11.8936 O.2     1  UNL1       -0.2698
      2 C          61.0656   86.7554   10.4929 C.2     1  UNL1        0.2510
      3 N          62.0090   85.6266   10.2002 N.am    1  UNL1       -0.2803
      4 H          62.3286   85.4780    9.2809 H       1  UNL1        0.1552
      5 C          62.4654   84.7241   11.3080 C.ar    1  UNL1        0.0520
      6 C          63.1483   85.3014   12.5124 C.ar    1  UNL1        0.0148
      7 C          63.6047   84.3990   13.6202 C.ar    1  UNL1        0.0028
      8 C          63.3783   82.9193   13.5237 C.ar    1  UNL1        0.0178
      9 C          63.8347   82.0169   14.6315 C.ar    1  UNL1        0.0031
     10 C          63.6083   80.5373   14.5350 C.ar    1  UNL1        0.0207
     11 C          62.9254   79.9600   13.3307 C.ar    1  UNL1        0.0988
     12 N          62.4690   80.8624   12.2228 N.ar    1  UNL1       -0.2438
     13 C          62.6954   82.3420   12.3194 C.ar    1  UNL1        0.0825
     14 C          62.2390   83.2445   11.2115 C.ar    1  UNL1        0.0338
     15 C          60.6091   87.6579    9.3852 C.ar    1  UNL1        0.0728
     16 C          59.8744   87.0880    8.2081 C.ar    1  UNL1        0.0076
     17 C          59.4180   87.9905    7.1004 C.ar    1  UNL1        0.0193
     18 C          59.6962   89.4629    7.1696 C.ar    1  UNL1        0.0813
     19 N          60.4310   90.0327    8.3466 N.ar    1  UNL1       -0.2437
     20 C          60.8874   89.1302    9.4545 C.ar    1  UNL1        0.1033
     21 C          59.2398   90.3653    6.0618 C.ar    1  UNL1        0.0177
     22 C          57.7750   90.6034    5.8438 C.ar    1  UNL1        0.0015
     23 C          57.3185   91.5058    4.7360 C.ar    1  UNL1        0.0000
     24 C          58.3269   92.1703    3.8462 C.ar    1  UNL1        0.0000
     25 C          59.7918   91.9322    4.0643 C.ar    1  UNL1        0.0000
     26 C          60.2482   91.0297    5.1721 C.ar    1  UNL1        0.0015
@<TRIPOS>BOND
     1     1     2    2
     2     2     3   am
     3     3     5    1
     4     5     6   ar
     5     6     7   ar
     6     7     8   ar
     7     8     9   ar
     8     9    10   ar
     9    10    11   ar
    10    11    12   ar
    11    12    13   ar
    12    13    14   ar
    13     2    15    1
    14    15    16   ar
    15    16    17   ar
    16    17    18   ar
    17    18    21    1
    18    21    22   ar
    19    22    23   ar
    20    23    24   ar
    21    24    25   ar
    22    25    26   ar
    23    18    19   ar
    24    19    20   ar
    25    14     5   ar
    26    20    15   ar
    27    13     8   ar
    28    26    21   ar
    29     3     4    1
@<TRIPOS>MOLECULE
*****
 26 29 0 0 0
SMALL
GASTEIGER

@<TRIPOS>ATOM
      1 O          60.0348   94.5295    2.6848 O.2     1  UNL1       -0.2698
      2 C          59.6670   93.0886    2.4880 C.2     1  UNL1        0.2510
      3 N          59.2906   92.5902    1.1242 N.am    1  UNL1       -0.2803
      4 H          59.0491   91.6446    0.9949 H       1  UNL1        0.1552
      5 C          59.2821   93.5327   -0.0428 C.ar    1  UNL1        0.0520
      6 C          60.5765   93.9847   -0.6512 C.ar    1  UNL1        0.0148
      7 C          60.5681   94.9271   -1.8181 C.ar    1  UNL1        0.0028
      8 C          59.2652   95.4176   -2.3767 C.ar    1  UNL1        0.0178
      9 C          59.2567   96.3600   -3.5436 C.ar    1  UNL1        0.0031
     10 C          57.9539   96.8505   -4.1021 C.ar    1  UNL1        0.0207
     11 C          56.6594   96.3985   -3.4937 C.ar    1  UNL1        0.0988
     12 N          56.6679   95.4561   -2.3268 N.ar    1  UNL1       -0.2438
     13 C          57.9708   94.9656   -1.7683 C.ar    1  UNL1        0.0825
     14 C          57.9792   94.0231   -0.6013 C.ar    1  UNL1        0.0338
     15 C          59.6755   92.1462    3.6549 C.ar    1  UNL1        0.0728
     16 C          58.3951   91.8204    4.3652 C.ar    1  UNL1        0.0076
     17 C          58.4036   90.8780    5.5321 C.ar    1  UNL1        0.0193
     18 C          59.6925   90.2614    5.9888 C.ar    1  UNL1        0.0813
     19 N          60.9729   90.5872    5.2786 N.ar    1  UNL1       -0.2437
     20 C          60.9643   91.5297    4.1116 C.ar    1  UNL1        0.1033
     21 C          59.7010   89.3190    7.1558 C.ar    1  UNL1        0.0177
     22 C          60.2129   89.7798    8.4883 C.ar    1  UNL1        0.0015
     23 C          60.2214   88.8375    9.6552 C.ar    1  UNL1        0.0000
     24 C          59.7180   87.4341    9.4897 C.ar    1  UNL1        0.0000
     25 C          59.2061   86.9733    8.1572 C.ar    1  UNL1        0.0000
     26 C          59.1976   87.9157    6.9902 C.ar    1  UNL1        0.0015
@<TRIPOS>BOND
     1     1     2    2
     2     2     3   am
     3     3     5    1
     4     5     6   ar
     5     6     7   ar
     6     7     8   ar
     7     8     9   ar
     8     9    10   ar
     9    10    11   ar
    10    11    12   ar
    11    12    13   ar
    12    13    14   ar
    13     2    15    1
    14    15    16   ar
    15    16    17   ar
    16    17    18   ar
    17    18    21    1
    18    21    22   ar
    19    22    23   ar
    20    23    24   ar
    21    24    25   ar
    22    25    26   ar
    23    18    19   ar
    24    19    20   ar
    25    14     5   ar
    26    20    15   ar
    27    13     8   ar
    28    26    21   ar
    29     3     4    1
@<TRIPOS>MOLECULE
*****
 26 29 0 0 0
SMALL
GASTEIGER

@<TRIPOS>ATOM
      1 O          60.0060   94.5608    2.7856 O.2     1  UNL1       -0.2698
      2 C          59.6397   93.1230    2.5647 C.2     1  UNL1        0.2510
      3 N          59.2642   92.6470    1.1927 N.am    1  UNL1       -0.2803
      4 H          59.0238   91.7034    1.0477 H       1  UNL1        0.1552
      5 C          59.2548   93.6088    0.0416 C.ar    1  UNL1        0.0520
      6 C          57.9626   94.2166   -0.4174 C.ar    1  UNL1        0.0148
      7 C          57.9532   95.1783   -1.5685 C.ar    1  UNL1        0.0028
      8 C          59.2362   95.5323   -2.2605 C.ar    1  UNL1        0.0178
      9 C          59.2268   96.4941   -3.4116 C.ar    1  UNL1        0.0031
     10 C          60.5097   96.8480   -4.1035 C.ar    1  UNL1        0.0207
     11 C          61.8019   96.2403   -3.6445 C.ar    1  UNL1        0.0988
     12 N          61.8113   95.2785   -2.4935 N.ar    1  UNL1       -0.2438
     13 C          60.5284   94.9246   -1.8015 C.ar    1  UNL1        0.0825
     14 C          60.5377   93.9628   -0.6504 C.ar    1  UNL1        0.0338
     15 C          59.6491   92.1613    3.7158 C.ar    1  UNL1        0.0728
     16 C          58.3668   91.8112    4.4110 C.ar    1  UNL1        0.0076
     17 C          58.3762   90.8495    5.5621 C.ar    1  UNL1        0.0193
     18 C          59.6678   90.2379    6.0180 C.ar    1  UNL1        0.0813
     19 N          60.9500   90.5880    5.3227 N.ar    1  UNL1       -0.2437
     20 C          60.9406   91.5497    4.1716 C.ar    1  UNL1        0.1033
     21 C          59.6771   89.2762    7.1690 C.ar    1  UNL1        0.0177
     22 C          59.0966   87.9030    7.0038 C.ar    1  UNL1        0.0015
     23 C          59.1059   86.9413    8.1549 C.ar    1  UNL1        0.0000
     24 C          59.6958   87.3528    9.4713 C.ar    1  UNL1        0.0000
     25 C          60.2763   88.7260    9.6365 C.ar    1  UNL1        0.0000
     26 C          60.2669   89.6877    8.4853 C.ar    1  UNL1        0.0015
@<TRIPOS>BOND
     1     1     2    2
     2     2     3   am
     3     3     5    1
     4     5     6   ar
     5     6     7   ar
     6     7     8   ar
     7     8     9   ar
     8     9    10   ar
     9    10    11   ar
    10    11    12   ar
    11    12    13   ar
    12    13    14   ar
    13     2    15    1
    14    15    16   ar
    15    16    17   ar
    16    17    18   ar
    17    18    21    1
    18    21    22   ar
    19    22    23   ar
    20    23    24   ar
    21    24    25   ar
    22    25    26   ar
    23    18    19   ar
    24    19    20   ar
    25    14     5   ar
    26    20    15   ar
    27    13     8   ar
    28    26    21   ar
    29     3     4    1
@<TRIPOS>MOLECULE
*****
 26 29 0 0 0
SMALL
GASTEIGER

@<TRIPOS>ATOM
      1 O          65.1406   86.1131   15.6529 O.2     1  UNL1       -0.2698
      2 C          64.2860   86.0900   14.4203 C.2     1  UNL1        0.2510
      3 N          63.7388   87.3706   13.8630 N.am    1  UNL1       -0.2803
      4 H          63.1779   87.3555   13.0540 H       1  UNL1        0.1552
      5 C          64.0461   88.6743   14.5383 C.ar    1  UNL1        0.0520
      6 C          63.2528   89.1034   15.7368 C.ar    1  UNL1        0.0148
      7 C          63.5601   90.4070   16.4122 C.ar    1  UNL1        0.0028
      8 C          64.6608   91.2816   15.8890 C.ar    1  UNL1        0.0178
      9 C          64.9681   92.5852   16.5644 C.ar    1  UNL1        0.0031
     10 C          66.0688   93.4597   16.0412 C.ar    1  UNL1        0.0207
     11 C          66.8621   93.0306   14.8427 C.ar    1  UNL1        0.0988
     12 N          66.5548   91.7270   14.1674 N.ar    1  UNL1       -0.2438
     13 C          65.4542   90.8525   14.6905 C.ar    1  UNL1        0.0825
     14 C          65.1468   89.5488   14.0152 C.ar    1  UNL1        0.0338
     15 C          63.9787   84.7863   13.7450 C.ar    1  UNL1        0.0728
     16 C          63.4620   84.7746   12.3369 C.ar    1  UNL1        0.0076
     17 C          63.1547   83.4709   11.6616 C.ar    1  UNL1        0.0193
     18 C          63.3641   82.1790   12.3945 C.ar    1  UNL1        0.0813
     19 N          63.8808   82.1907   13.8026 N.ar    1  UNL1       -0.2437
     20 C          64.1881   83.4945   14.4779 C.ar    1  UNL1        0.1033
     21 C          63.0568   80.8753   11.7192 C.ar    1  UNL1        0.0177
     22 C          63.1427   80.7657   10.2257 C.ar    1  UNL1        0.0015
     23 C          62.8354   79.4621    9.5504 C.ar    1  UNL1        0.0000
     24 C          62.4422   78.2680   10.3687 C.ar    1  UNL1        0.0000
     25 C          62.3562   78.3776   11.8622 C.ar    1  UNL1        0.0000
     26 C          62.6636   79.6813   12.5374 C.ar    1  UNL1        0.0015
@<TRIPOS>BOND
     1     1     2    2
     2     2     3   am
     3     3     5    1
     4     5     6   ar
     5     6     7   ar
     6     7     8   ar
     7     8     9   ar
     8     9    10   ar
     9    10    11   ar
    10    11    12   ar
    11    12    13   ar
    12    13    14   ar
    13     2    15    1
    14    15    16   ar
    15    16    17   ar
    16    17    18   ar
    17    18    21    1
    18    21    22   ar
    19    22    23   ar
    20    23    24   ar
    21    24    25   ar
    22    25    26   ar
    23    18    19   ar
    24    19    20   ar
    25    14     5   ar
    26    20    15   ar
    27    13     8   ar
    28    26    21   ar
    29     3     4    1
@<TRIPOS>MOLECULE
*****
 26 29 0 0 0
SMALL
GASTEIGER

@<TRIPOS>ATOM
      1 O          65.5896   87.2690   14.9718 O.2     1  UNL1       -0.2698
      2 C          64.3234   87.0598   14.1951 C.2     1  UNL1        0.2510
      3 N          63.6873   88.2109   13.4737 N.am    1  UNL1       -0.2803
      4 H          62.8563   88.0737   12.9639 H       1  UNL1        0.1552
      5 C          64.3173   89.5711   13.5291 C.ar    1  UNL1        0.0520
      6 C          64.8961   90.0776   14.8169 C.ar    1  UNL1        0.0148
      7 C          65.5261   91.4378   14.8724 C.ar    1  UNL1        0.0028
      8 C          65.5772   92.2915   13.6400 C.ar    1  UNL1        0.0178
      9 C          66.2072   93.6516   13.6955 C.ar    1  UNL1        0.0031
     10 C          66.2583   94.5052   12.4632 C.ar    1  UNL1        0.0207
     11 C          65.6795   93.9987   11.1754 C.ar    1  UNL1        0.0988
     12 N          65.0495   92.6386   11.1199 N.ar    1  UNL1       -0.2438
     13 C          64.9984   91.7850   12.3522 C.ar    1  UNL1        0.0825
     14 C          64.3684   90.4247   12.2968 C.ar    1  UNL1        0.0338
     15 C          63.6935   85.6996   14.1397 C.ar    1  UNL1        0.0728
     16 C          63.3585   85.0816   12.8146 C.ar    1  UNL1        0.0076
     17 C          62.7286   83.7215   12.7592 C.ar    1  UNL1        0.0193
     18 C          62.4337   82.9792   14.0289 C.ar    1  UNL1        0.0813
     19 N          62.7687   83.5972   15.3540 N.ar    1  UNL1       -0.2437
     20 C          63.3986   84.9575   15.4094 C.ar    1  UNL1        0.1033
     21 C          61.8038   81.6191   13.9736 C.ar    1  UNL1        0.0177
     22 C          60.3412   81.4574   14.2648 C.ar    1  UNL1        0.0015
     23 C          59.7113   80.0972   14.2094 C.ar    1  UNL1        0.0000
     24 C          60.5440   78.8986   13.8628 C.ar    1  UNL1        0.0000
     25 C          62.0065   79.0603   13.5715 C.ar    1  UNL1        0.0000
     26 C          62.6364   80.4205   13.6269 C.ar    1  UNL1        0.0015
@<TRIPOS>BOND
     1     1     2    2
     2     2     3   am
     3     3     5    1
     4     5     6   ar
     5     6     7   ar
     6     7     8   ar
     7     8     9   ar
     8     9    10   ar
     9    10    11   ar
    10    11    12   ar
    11    12    13   ar
    12    13    14   ar
    13     2    15    1
    14    15    16   ar
    15    16    17   ar
    16    17    18   ar
    17    18    21    1
    18    21    22   ar
    19    22    23   ar
    20    23    24   ar
    21    24    25   ar
    22    25    26   ar
    23    18    19   ar
    24    19    20   ar
    25    14     5   ar
    26    20    15   ar
    27    13     8   ar
    28    26    21   ar
    29     3     4    1
@<TRIPOS>MOLECULE
*****
 26 29 0 0 0
SMALL
GASTEIGER

@<TRIPOS>ATOM
      1 O          65.3417   87.4513   14.9109 O.2     1  UNL1       -0.2698
      2 C          64.1991   87.1344   13.9920 C.2     1  UNL1        0.2510
      3 N          63.6372   88.2003   13.0987 N.am    1  UNL1       -0.2803
      4 H          62.8873   87.9924   12.4956 H       1  UNL1        0.1552
      5 C          64.2178   89.5832   13.1243 C.ar    1  UNL1        0.0520
      6 C          63.8920   90.5538   12.0280 C.ar    1  UNL1        0.0148
      7 C          64.4725   91.9367   12.0536 C.ar    1  UNL1        0.0028
      8 C          65.3789   92.3490   13.1754 C.ar    1  UNL1        0.0178
      9 C          65.9595   93.7318   13.2010 C.ar    1  UNL1        0.0031
     10 C          66.8659   94.1440   14.3228 C.ar    1  UNL1        0.0207
     11 C          67.1917   93.1734   15.4190 C.ar    1  UNL1        0.0988
     12 N          66.6112   91.7906   15.3935 N.ar    1  UNL1       -0.2438
     13 C          65.7048   91.3784   14.2717 C.ar    1  UNL1        0.0825
     14 C          65.1242   89.9955   14.2461 C.ar    1  UNL1        0.0338
     15 C          63.6186   85.7515   13.9664 C.ar    1  UNL1        0.0728
     16 C          63.1220   85.1703   12.6759 C.ar    1  UNL1        0.0076
     17 C          62.5415   83.7875   12.6503 C.ar    1  UNL1        0.0193
     18 C          62.4575   82.9858   13.9154 C.ar    1  UNL1        0.0813
     19 N          62.9540   83.5670   15.2060 N.ar    1  UNL1       -0.2437
     20 C          63.5346   84.9499   15.2315 C.ar    1  UNL1        0.1033
     21 C          61.8769   81.6030   13.8898 C.ar    1  UNL1        0.0177
     22 C          62.7426   80.4327   13.5277 C.ar    1  UNL1        0.0015
     23 C          62.1620   79.0499   13.5021 C.ar    1  UNL1        0.0000
     24 C          60.7158   78.8372   13.8387 C.ar    1  UNL1        0.0000
     25 C          59.8501   80.0075   14.2008 C.ar    1  UNL1        0.0000
     26 C          60.4308   81.3904   14.2264 C.ar    1  UNL1        0.0015
@<TRIPOS>BOND
     1     1     2    2
     2     2     3   am
     3     3     5    1
     4     5     6   ar
     5     6     7   ar
     6     7     8   ar
     7     8     9   ar
     8     9    10   ar
     9    10    11   ar
    10    11    12   ar
    11    12    13   ar
    12    13    14   ar
    13     2    15    1
    14    15    16   ar
    15    16    17   ar
    16    17    18   ar
    17    18    21    1
    18    21    22   ar
    19    22    23   ar
    20    23    24   ar
    21    24    25   ar
    22    25    26   ar
    23    18    19   ar
    24    19    20   ar
    25    14     5   ar
    26    20    15   ar
    27    13     8   ar
    28    26    21   ar
    29     3     4    1
