@<TRIPOS>MOLECULE
*****
 29 33 0 0 0
SMALL
GASTEIGER

@<TRIPOS>ATOM
      1 O          60.6237   90.5298    8.9483 O.2     1  UNL1       -0.2526
      2 C          60.4956   89.0812    8.5808 C.2     1  UNL1        0.3039
      3 N          59.7849   88.6873    7.3199 N.am    1  UNL1       -0.2901
      4 N          61.0782   88.0264    9.4742 N.am    1  UNL1       -0.2640
      5 C          61.7888   88.4202   10.7350 C.3     1  UNL1        0.0985
      6 C          62.3714   87.3654   11.6283 C.3     1  UNL1        0.0616
      7 C          62.2433   85.9168   11.2608 C.3     1  UNL1        0.1367
      8 C          62.9540   86.3106   12.5217 C.3     1  UNL1        0.0449
      9 C          63.5365   85.2559   13.4150 C.3     1  UNL1        0.0331
     10 C          63.4084   83.8073   13.0475 C.ar    1  UNL1        0.0141
     11 C          63.9910   82.7525   13.9408 C.ar    1  UNL1        0.0284
     12 C          63.8629   81.3038   13.5733 C.ar    1  UNL1        0.1400
     13 F          64.4454   80.2491   14.4666 F       1  UNL1       -0.2042
     14 C          63.1522   80.9100   12.3124 C.ar    1  UNL1        0.0327
     15 C          62.5696   81.9648   11.4191 C.ar    1  UNL1        0.0389
     16 C          62.6977   83.4134   11.7866 C.ar    1  UNL1        0.1343
     17 O          62.1151   84.4682   10.8932 O.3     1  UNL1       -0.4828
     18 C          61.5326   85.5230    9.9999 C.3     1  UNL1        0.0616
     19 C          60.9501   86.5778    9.1066 C.3     1  UNL1        0.0985
     20 H          59.7008   87.7366    7.0787 H       1  UNL1        0.1509
     21 C          59.2023   89.7421    6.4265 C.3     1  UNL1        0.0774
     22 C          58.0251   90.5503    5.9673 C.3     1  UNL1        0.0259
     23 C          59.3705   90.7609    5.3385 C.3     1  UNL1        0.0420
     24 C          60.2444   91.4706    4.3473 C.ar    1  UNL1       -0.0208
     25 C          61.6797   91.0652    4.1874 C.ar    1  UNL1       -0.0042
     26 C          62.5536   91.7749    3.1962 C.ar    1  UNL1       -0.0003
     27 C          61.9922   92.8901    2.3647 C.ar    1  UNL1       -0.0000
     28 C          60.5569   93.2955    2.5246 C.ar    1  UNL1       -0.0003
     29 C          59.6830   92.5858    3.5159 C.ar    1  UNL1       -0.0042
@<TRIPOS>BOND
     1     1     2    2
     2     2     3   am
     3    21     3    1
     4    21    22    1
     5    22    23    1
     6    23    24    1
     7    24    25   ar
     8    25    26   ar
     9    26    27   ar
    10    27    28   ar
    11    28    29   ar
    12     2     4   am
    13     4     5    1
    14     5     6    1
    15     6     7    1
    16     7     8    1
    17     8     9    1
    18     9    10    1
    19    10    11   ar
    20    11    12   ar
    21    12    13    1
    22    12    14   ar
    23    14    15   ar
    24    15    16   ar
    25    16    17    1
    26     7    18    1
    27    18    19    1
    28    23    21    1
    29    29    24   ar
    30    19     4    1
    31    17     7    1
    32    16    10   ar
    33     3    20    1
@<TRIPOS>MOLECULE
*****
 29 33 0 0 0
SMALL
GASTEIGER

@<TRIPOS>ATOM
      1 O          57.9523   90.4872    5.8728 O.2     1  UNL1       -0.2526
      2 C          59.4197   90.4881    5.5618 C.2     1  UNL1        0.3039
      3 N          60.3468   89.5817    6.3159 N.am    1  UNL1       -0.2901
      4 N          59.9599   91.3957    4.4966 N.am    1  UNL1       -0.2640
      5 C          59.0328   92.3021    3.7424 C.3     1  UNL1        0.0985
      6 C          59.5731   93.2096    2.6773 C.3     1  UNL1        0.0616
      7 C          61.0405   93.2105    2.3663 C.3     1  UNL1        0.1367
      8 C          60.1134   94.1171    1.6121 C.3     1  UNL1        0.0449
      9 C          60.6537   95.0245    0.5469 C.3     1  UNL1        0.0331
     10 C          62.1211   95.0255    0.2359 C.ar    1  UNL1        0.0141
     11 C          62.6614   95.9330   -0.8293 C.ar    1  UNL1        0.0284
     12 C          64.1288   95.9340   -1.1403 C.ar    1  UNL1        0.1400
     13 F          64.6691   96.8414   -2.2055 F       1  UNL1       -0.2042
     14 C          65.0559   95.0274   -0.3861 C.ar    1  UNL1        0.0327
     15 C          64.5156   94.1200    0.6790 C.ar    1  UNL1        0.0389
     16 C          63.0482   94.1190    0.9900 C.ar    1  UNL1        0.1343
     17 O          62.5079   93.2115    2.0553 O.3     1  UNL1       -0.4828
     18 C          61.9676   92.3041    3.1204 C.3     1  UNL1        0.0616
     19 C          61.4273   91.3966    4.1855 C.3     1  UNL1        0.0985
     20 H          61.3099   89.5823    6.1118 H       1  UNL1        0.1509
     21 C          59.8065   88.6742    7.3811 C.3     1  UNL1        0.0774
     22 C          58.6449   88.1361    8.1628 C.3     1  UNL1        0.0259
     23 C          60.0323   87.6405    8.4444 C.3     1  UNL1        0.0420
     24 C          60.9638   86.7577    9.2209 C.ar    1  UNL1       -0.0208
     25 C          61.9566   85.8958    8.4988 C.ar    1  UNL1       -0.0042
     26 C          62.8881   85.0130    9.2752 C.ar    1  UNL1       -0.0003
     27 C          62.8267   84.9920   10.7739 C.ar    1  UNL1       -0.0000
     28 C          61.8338   85.8538   11.4960 C.ar    1  UNL1       -0.0003
     29 C          60.9024   86.7367   10.7194 C.ar    1  UNL1       -0.0042
@<TRIPOS>BOND
     1     1     2    2
     2     2     3   am
     3    21     3    1
     4    21    22    1
     5    22    23    1
     6    23    24    1
     7    24    25   ar
     8    25    26   ar
     9    26    27   ar
    10    27    28   ar
    11    28    29   ar
    12     2     4   am
    13     4     5    1
    14     5     6    1
    15     6     7    1
    16     7     8    1
    17     8     9    1
    18     9    10    1
    19    10    11   ar
    20    11    12   ar
    21    12    13    1
    22    12    14   ar
    23    14    15   ar
    24    15    16   ar
    25    16    17    1
    26     7    18    1
    27    18    19    1
    28    23    21    1
    29    29    24   ar
    30    19     4    1
    31    17     7    1
    32    16    10   ar
    33     3    20    1
@<TRIPOS>MOLECULE
*****
 29 33 0 0 0
SMALL
GASTEIGER

@<TRIPOS>ATOM
      1 O          63.9101   91.3797   12.0407 O.2     1  UNL1       -0.2526
      2 C          64.4413   90.3865   13.0313 C.2     1  UNL1        0.3039
      3 N          65.3827   90.8334   14.1102 N.am    1  UNL1       -0.2901
      4 N          64.0310   88.9463   12.9430 N.am    1  UNL1       -0.2640
      5 C          63.0897   88.4994   11.8642 C.3     1  UNL1        0.0985
      6 C          62.6795   87.0593   11.7759 C.3     1  UNL1        0.0616
      7 C          63.2107   86.0661   12.7666 C.3     1  UNL1        0.1367
      8 C          62.2692   85.6192   11.6876 C.3     1  UNL1        0.0449
      9 C          61.8591   84.1791   11.5994 C.3     1  UNL1        0.0331
     10 C          62.3903   83.1859   12.5900 C.ar    1  UNL1        0.0141
     11 C          61.9801   81.7457   12.5018 C.ar    1  UNL1        0.0284
     12 C          62.5113   80.7525   13.4924 C.ar    1  UNL1        0.1400
     13 F          62.1011   79.3124   13.4041 F       1  UNL1       -0.2042
     14 C          63.4527   81.1995   14.5713 C.ar    1  UNL1        0.0327
     15 C          63.8629   82.6396   14.6595 C.ar    1  UNL1        0.0389
     16 C          63.3317   83.6328   13.6689 C.ar    1  UNL1        0.1343
     17 O          63.7419   85.0729   13.7572 O.3     1  UNL1       -0.4828
     18 C          64.1521   86.5130   13.8454 C.3     1  UNL1        0.0616
     19 C          64.5623   87.9531   13.9337 C.3     1  UNL1        0.0985
     20 H          65.7313   90.1815   14.7604 H       1  UNL1        0.1509
     21 C          65.7929   92.2736   14.1985 C.3     1  UNL1        0.0774
     22 C          66.1504   93.4742   15.0235 C.3     1  UNL1        0.0259
     23 C          66.1459   93.5673   13.5264 C.3     1  UNL1        0.0420
     24 C          66.3470   94.3679   12.2741 C.ar    1  UNL1       -0.0208
     25 C          66.7022   93.6769   10.9910 C.ar    1  UNL1       -0.0042
     26 C          66.9034   94.4776    9.7386 C.ar    1  UNL1       -0.0003
     27 C          66.7492   95.9694    9.7693 C.ar    1  UNL1       -0.0000
     28 C          66.3940   96.6604   11.0524 C.ar    1  UNL1       -0.0003
     29 C          66.1929   95.8597   12.3048 C.ar    1  UNL1       -0.0042
@<TRIPOS>BOND
     1     1     2    2
     2     2     3   am
     3    21     3    1
     4    21    22    1
     5    22    23    1
     6    23    24    1
     7    24    25   ar
     8    25    26   ar
     9    26    27   ar
    10    27    28   ar
    11    28    29   ar
    12     2     4   am
    13     4     5    1
    14     5     6    1
    15     6     7    1
    16     7     8    1
    17     8     9    1
    18     9    10    1
    19    10    11   ar
    20    11    12   ar
    21    12    13    1
    22    12    14   ar
    23    14    15   ar
    24    15    16   ar
    25    16    17    1
    26     7    18    1
    27    18    19    1
    28    23    21    1
    29    29    24   ar
    30    19     4    1
    31    17     7    1
    32    16    10   ar
    33     3    20    1
@<TRIPOS>MOLECULE
*****
 29 33 0 0 0
SMALL
GASTEIGER

@<TRIPOS>ATOM
      1 O          58.0780   91.1003    5.1892 O.2     1  UNL1       -0.2526
      2 C          59.5471   91.1342    4.8880 C.2     1  UNL1        0.3039
      3 N          60.5054   90.3555    5.7396 N.am    1  UNL1       -0.2901
      4 N          60.0577   91.9467    3.7351 N.am    1  UNL1       -0.2640
      5 C          59.0994   92.7253    2.8835 C.3     1  UNL1        0.0985
      6 C          59.6101   93.5378    1.7308 C.3     1  UNL1        0.0616
      7 C          61.0791   93.5717    1.4296 C.3     1  UNL1        0.1367
      8 C          60.1208   94.3504    0.5779 C.3     1  UNL1        0.0449
      9 C          60.6315   95.1629   -0.5749 C.3     1  UNL1        0.0331
     10 C          62.1005   95.1968   -0.8761 C.ar    1  UNL1        0.0141
     11 C          62.6112   96.0094   -2.0290 C.ar    1  UNL1        0.0284
     12 C          64.0803   96.0433   -2.3302 C.ar    1  UNL1        0.1400
     13 F          64.5910   96.8558   -3.4829 F       1  UNL1       -0.2042
     14 C          65.0386   95.2646   -1.4785 C.ar    1  UNL1        0.0327
     15 C          64.5279   94.4521   -0.3257 C.ar    1  UNL1        0.0389
     16 C          63.0589   94.4182   -0.0245 C.ar    1  UNL1        0.1343
     17 O          62.5482   93.6056    1.1284 O.3     1  UNL1       -0.4828
     18 C          62.0375   92.7931    2.2812 C.3     1  UNL1        0.0616
     19 C          61.5268   91.9806    3.4339 C.3     1  UNL1        0.0985
     20 H          61.4696   90.3778    5.5419 H       1  UNL1        0.1509
     21 C          59.9947   89.5430    6.8925 C.3     1  UNL1        0.0774
     22 C          59.0595   88.5038    7.4359 C.3     1  UNL1        0.0259
     23 C          60.0454   89.1748    8.3457 C.3     1  UNL1        0.0420
     24 C          60.6439   89.3497    9.7099 C.ar    1  UNL1       -0.0208
     25 C          62.1332   89.3171    9.8854 C.ar    1  UNL1       -0.0042
     26 C          62.7317   89.4920   11.2496 C.ar    1  UNL1       -0.0003
     27 C          61.8408   89.6995   12.4385 C.ar    1  UNL1       -0.0000
     28 C          60.3515   89.7321   12.2630 C.ar    1  UNL1       -0.0003
     29 C          59.7530   89.5572   10.8987 C.ar    1  UNL1       -0.0042
@<TRIPOS>BOND
     1     1     2    2
     2     2     3   am
     3    21     3    1
     4    21    22    1
     5    22    23    1
     6    23    24    1
     7    24    25   ar
     8    25    26   ar
     9    26    27   ar
    10    27    28   ar
    11    28    29   ar
    12     2     4   am
    13     4     5    1
    14     5     6    1
    15     6     7    1
    16     7     8    1
    17     8     9    1
    18     9    10    1
    19    10    11   ar
    20    11    12   ar
    21    12    13    1
    22    12    14   ar
    23    14    15   ar
    24    15    16   ar
    25    16    17    1
    26     7    18    1
    27    18    19    1
    28    23    21    1
    29    29    24   ar
    30    19     4    1
    31    17     7    1
    32    16    10   ar
    33     3    20    1
@<TRIPOS>MOLECULE
*****
 29 33 0 0 0
SMALL
GASTEIGER

@<TRIPOS>ATOM
      1 O          59.7231   88.9943   11.2387 O.2     1  UNL1       -0.2526
      2 C          61.0436   89.4695   10.7090 C.2     1  UNL1        0.3039
      3 N          61.3052   89.4638    9.2321 N.am    1  UNL1       -0.2901
      4 N          62.1026   89.9503   11.6565 N.am    1  UNL1       -0.2640
      5 C          61.8410   89.9559   13.1334 C.3     1  UNL1        0.0985
      6 C          62.8999   90.4367   14.0808 C.3     1  UNL1        0.0616
      7 C          64.2204   90.9119   13.5511 C.3     1  UNL1        0.1367
      8 C          63.9588   90.9175   15.0282 C.3     1  UNL1        0.0449
      9 C          65.0177   91.3983   15.9755 C.3     1  UNL1        0.0331
     10 C          66.3382   91.8735   15.4459 C.ar    1  UNL1        0.0141
     11 C          67.3972   92.3543   16.3933 C.ar    1  UNL1        0.0284
     12 C          68.7177   92.8294   15.8637 C.ar    1  UNL1        0.1400
     13 F          69.7766   93.3102   16.8111 F       1  UNL1       -0.2042
     14 C          68.9793   92.8237   14.3867 C.ar    1  UNL1        0.0327
     15 C          67.9203   92.3429   13.4393 C.ar    1  UNL1        0.0389
     16 C          66.5998   91.8678   13.9689 C.ar    1  UNL1        0.1343
     17 O          65.5409   91.3870   13.0215 O.3     1  UNL1       -0.4828
     18 C          64.4820   90.9062   12.0742 C.3     1  UNL1        0.0616
     19 C          63.4231   90.4254   11.1268 C.3     1  UNL1        0.0985
     20 H          62.1719   89.7756    8.8845 H       1  UNL1        0.1509
     21 C          60.2463   88.9830    8.2846 C.3     1  UNL1        0.0774
     22 C          59.3448   87.8911    7.7897 C.3     1  UNL1        0.0259
     23 C          59.3138   89.2421    7.1387 C.3     1  UNL1        0.0420
     24 C          58.7575   90.1717    6.1012 C.ar    1  UNL1       -0.0208
     25 C          57.2740   90.2751    5.9050 C.ar    1  UNL1       -0.0042
     26 C          56.7177   91.2047    4.8675 C.ar    1  UNL1       -0.0003
     27 C          57.6449   92.0309    4.0262 C.ar    1  UNL1       -0.0000
     28 C          59.1284   91.9275    4.2225 C.ar    1  UNL1       -0.0003
     29 C          59.6847   90.9978    5.2600 C.ar    1  UNL1       -0.0042
@<TRIPOS>BOND
     1     1     2    2
     2     2     3   am
     3    21     3    1
     4    21    22    1
     5    22    23    1
     6    23    24    1
     7    24    25   ar
     8    25    26   ar
     9    26    27   ar
    10    27    28   ar
    11    28    29   ar
    12     2     4   am
    13     4     5    1
    14     5     6    1
    15     6     7    1
    16     7     8    1
    17     8     9    1
    18     9    10    1
    19    10    11   ar
    20    11    12   ar
    21    12    13    1
    22    12    14   ar
    23    14    15   ar
    24    15    16   ar
    25    16    17    1
    26     7    18    1
    27    18    19    1
    28    23    21    1
    29    29    24   ar
    30    19     4    1
    31    17     7    1
    32    16    10   ar
    33     3    20    1
@<TRIPOS>MOLECULE
*****
 29 33 0 0 0
SMALL
GASTEIGER

@<TRIPOS>ATOM
      1 O          61.8082   85.6013   11.9007 O.2     1  UNL1       -0.2526
      2 C          62.7022   86.3605   12.8357 C.2     1  UNL1        0.3039
      3 N          63.1551   85.7291   14.1187 N.am    1  UNL1       -0.2901
      4 N          63.1433   87.7514   12.4876 N.am    1  UNL1       -0.2640
      5 C          62.6904   88.3829   11.2047 C.3     1  UNL1        0.0985
      6 C          63.1316   89.7736   10.8567 C.3     1  UNL1        0.0616
      7 C          64.0256   90.5329   11.7917 C.3     1  UNL1        0.1367
      8 C          63.5727   91.1645   10.5086 C.3     1  UNL1        0.0449
      9 C          64.0139   92.5552   10.1607 C.3     1  UNL1        0.0331
     10 C          64.9079   93.3145   11.0956 C.ar    1  UNL1        0.0141
     11 C          65.3490   94.7053   10.7476 C.ar    1  UNL1        0.0284
     12 C          66.2431   95.4646   11.6826 C.ar    1  UNL1        0.1400
     13 F          66.6842   96.8554   11.3346 F       1  UNL1       -0.2042
     14 C          66.6959   94.8330   12.9656 C.ar    1  UNL1        0.0327
     15 C          66.2548   93.4423   13.3136 C.ar    1  UNL1        0.0389
     16 C          65.3608   92.6830   12.3786 C.ar    1  UNL1        0.1343
     17 O          64.9196   91.2922   12.7267 O.3     1  UNL1       -0.4828
     18 C          64.4785   89.9014   13.0747 C.3     1  UNL1        0.0616
     19 C          64.0374   88.5107   13.4226 C.3     1  UNL1        0.0985
     20 H          63.7418   86.2274   14.7323 H       1  UNL1        0.1509
     21 C          62.7139   84.3382   14.4667 C.3     1  UNL1        0.0774
     22 C          62.1398   83.3666   15.4547 C.3     1  UNL1        0.0259
     23 C          62.5240   82.9010   14.0815 C.3     1  UNL1        0.0420
     24 C          62.6363   81.8025   13.0664 C.ar    1  UNL1       -0.0208
     25 C          63.0495   82.1204   11.6599 C.ar    1  UNL1       -0.0042
     26 C          63.1617   81.0218   10.6447 C.ar    1  UNL1       -0.0003
     27 C          62.8608   79.6053   11.0360 C.ar    1  UNL1       -0.0000
     28 C          62.4475   79.2875   12.4425 C.ar    1  UNL1       -0.0003
     29 C          62.3353   80.3861   13.4577 C.ar    1  UNL1       -0.0042
@<TRIPOS>BOND
     1     1     2    2
     2     2     3   am
     3    21     3    1
     4    21    22    1
     5    22    23    1
     6    23    24    1
     7    24    25   ar
     8    25    26   ar
     9    26    27   ar
    10    27    28   ar
    11    28    29   ar
    12     2     4   am
    13     4     5    1
    14     5     6    1
    15     6     7    1
    16     7     8    1
    17     8     9    1
    18     9    10    1
    19    10    11   ar
    20    11    12   ar
    21    12    13    1
    22    12    14   ar
    23    14    15   ar
    24    15    16   ar
    25    16    17    1
    26     7    18    1
    27    18    19    1
    28    23    21    1
    29    29    24   ar
    30    19     4    1
    31    17     7    1
    32    16    10   ar
    33     3    20    1
