@<TRIPOS>MOLECULE
*****
 44 48 0 0 0
SMALL
GASTEIGER

@<TRIPOS>ATOM
      1 N          61.6111   88.5056   10.5097 N.am    1  UNL1       -0.2733
      2 C          62.3281   87.7006   11.5529 C.2     1  UNL1        0.2462
      3 O          63.0697   88.3943   12.6569 O.2     1  UNL1       -0.2730
      4 C          62.3035   86.2021   11.4919 C.3     1  UNL1        0.1759
      5 N          61.5619   85.5085   10.3879 N.am    1  UNL1       -0.2951
      6 C          60.8449   86.3133    9.3448 C.2     1  UNL1        0.2390
      7 O          60.1034   85.6197    8.2407 O.2     1  UNL1       -0.2734
      8 C          60.8696   87.8119    9.4057 C.3     1  UNL1        0.1314
      9 C          60.8942   89.3105    9.4666 C.3     1  UNL1        0.0445
     10 C          60.1772   90.1154    8.4235 C.3     1  UNL1        0.0745
     11 N          59.4357   89.4217    7.3195 N.3     1  UNL1       -0.2688
     12 C          59.4110   87.9232    7.2585 C.3     1  UNL1        0.0745
     13 C          60.1280   87.1183    8.3016 C.3     1  UNL1        0.0445
     14 H          61.5457   84.5249   10.3479 H       1  UNL1        0.1499
     15 C          63.0204   85.3971   12.5351 C.3     1  UNL1        0.1372
     16 O          63.8189   86.0899   13.5993 O.3     1  UNL1       -0.3823
     17 H          63.7673   87.0497   13.4690 H       1  UNL1        0.2104
     18 C          62.9389   83.8995   12.5139 C.3     1  UNL1        0.0291
     19 C          62.3303   83.1651   13.6716 C.3     1  UNL1        0.0025
     20 C          62.2488   81.6675   13.6504 C.3     1  UNL1        0.0001
     21 C          62.7759   80.9042   12.4716 C.3     1  UNL1        0.0000
     22 C          63.3846   81.6387   11.3139 C.3     1  UNL1        0.0001
     23 C          63.4661   83.1363   11.3351 C.3     1  UNL1        0.0025
     24 C          61.6358   90.0041   10.5707 C.3     1  UNL1        0.0938
     25 C          62.8724   90.7509   10.1669 C.3     1  UNL1        0.0215
     26 C          64.8822   92.2575   10.8311 C.3     1  UNL1        0.0001
     27 C          63.7920   91.3018   11.2161 C.3     1  UNL1        0.0018
     28 C          58.7187   90.2267    6.2763 C.3     1  UNL1        0.0992
     29 C          59.5001   90.9615    5.2278 C.ar    1  UNL1       -0.0059
     30 C          58.8388   92.0337    4.4136 C.ar    1  UNL1        0.0002
     31 C          59.6203   92.7686    3.3650 C.ar    1  UNL1        0.0372
     32 C          61.0629   92.4313    3.1308 C.ar    1  UNL1        0.1453
     33 C          61.7242   91.3590    3.9451 C.ar    1  UNL1        0.0372
     34 C          60.9428   90.6242    4.9936 C.ar    1  UNL1        0.0002
     35 O          61.8443   93.1661    2.0823 O.3     1  UNL1       -0.4535
     36 C          61.2912   93.3057    0.6950 C.ar    1  UNL1        0.1453
     37 C          61.8040   94.3850   -0.2117 C.ar    1  UNL1        0.0375
     38 C          61.2509   94.5246   -1.5990 C.ar    1  UNL1        0.0043
     39 C          60.1850   93.5850   -2.0796 C.ar    1  UNL1        0.0142
     40 C          59.6721   92.5057   -1.1728 C.ar    1  UNL1        0.0043
     41 C          60.2252   92.3661    0.2145 C.ar    1  UNL1        0.0375
     42 C          59.6319   93.7247   -3.4668 C.2     1  UNL1        0.0729
     43 O          58.3551   93.0306   -3.8386 O.co2   1  UNL1       -0.5446
     44 O          60.3555   94.5584   -4.4824 O.co2   1  UNL1       -0.5446
@<TRIPOS>UNITY_ATOM_ATTR
43 1
charge -1
@<TRIPOS>BOND
     1    26    27    1
     2    27    25    1
     3    25    24    1
     4    24     1    1
     5     1     2   am
     6     2     3    2
     7     2     4    1
     8     4    15    1
     9    15    16    1
    10    15    18    1
    11    18    19    1
    12    19    20    1
    13    20    21    1
    14    21    22    1
    15    22    23    1
    16     4     5    1
    17     5     6   am
    18     6     7    2
    19     6     8    1
    20     8     9    1
    21     9    10    1
    22    10    11    1
    23    11    28    1
    24    28    29    1
    25    29    30   ar
    26    30    31   ar
    27    31    32   ar
    28    32    35    1
    29    35    36    1
    30    36    37   ar
    31    37    38   ar
    32    38    39   ar
    33    39    42    1
    34    42    43   ar
    35    42    44   ar
    36    39    40   ar
    37    40    41   ar
    38    32    33   ar
    39    33    34   ar
    40    11    12    1
    41    12    13    1
    42     8     1    1
    43    34    29   ar
    44    23    18    1
    45    13     8    1
    46    41    36   ar
    47    16    17    1
    48     5    14    1
@<TRIPOS>MOLECULE
*****
 44 48 0 0 0
SMALL
GASTEIGER

@<TRIPOS>ATOM
      1 N          62.1708   87.3975   11.2013 N.am    1  UNL1       -0.2733
      2 C          63.0165   87.3850   12.4401 C.2     1  UNL1        0.2462
      3 O          63.4239   86.0797   13.0568 O.2     1  UNL1       -0.2730
      4 C          63.4547   88.6776   13.0622 C.3     1  UNL1        0.1759
      5 N          63.0473   89.9828   12.4454 N.am    1  UNL1       -0.2951
      6 C          62.2016   89.9954   11.2066 C.2     1  UNL1        0.2390
      7 O          61.7942   91.3007   10.5899 O.2     1  UNL1       -0.2734
      8 C          61.7633   88.7028   10.5845 C.3     1  UNL1        0.1314
      9 C          61.3251   87.4101    9.9625 C.3     1  UNL1        0.0445
     10 C          60.4794   87.4227    8.7237 C.3     1  UNL1        0.0745
     11 N          60.0720   88.7280    8.1070 N.3     1  UNL1       -0.2688
     12 C          60.5102   90.0206    8.7290 C.3     1  UNL1        0.0745
     13 C          61.3559   90.0080    9.9678 C.3     1  UNL1        0.0445
     14 H          63.3349   90.8313   12.8537 H       1  UNL1        0.1499
     15 C          64.3005   88.6651   14.3010 C.3     1  UNL1        0.1372
     16 O          64.7315   87.3599   14.9017 O.3     1  UNL1       -0.3823
     17 H          64.3807   86.6280   14.3704 H       1  UNL1        0.2104
     18 C          64.7151   89.9576   14.9391 C.3     1  UNL1        0.0291
     19 C          65.9743   90.6424   14.4968 C.3     1  UNL1        0.0025
     20 C          66.3890   91.9350   15.1350 C.3     1  UNL1        0.0001
     21 C          65.5445   92.5428   16.2155 C.3     1  UNL1        0.0000
     22 C          64.2853   91.8581   16.6578 C.3     1  UNL1        0.0001
     23 C          63.8707   90.5654   16.0196 C.3     1  UNL1        0.0025
     24 C          61.7325   86.1049   10.5792 C.3     1  UNL1        0.0938
     25 C          62.7496   85.1741    9.9884 C.3     1  UNL1        0.0215
     26 C          64.2272   83.0468   10.1916 C.3     1  UNL1        0.0001
     27 C          63.1034   83.9012   10.6986 C.3     1  UNL1        0.0018
     28 C          59.2263   88.7405    6.8681 C.3     1  UNL1        0.0992
     29 C          59.2489   89.9315    5.9566 C.ar    1  UNL1       -0.0059
     30 C          57.9746   90.6550    5.6361 C.ar    1  UNL1        0.0002
     31 C          57.9973   91.8461    4.7245 C.ar    1  UNL1        0.0372
     32 C          59.2942   92.3136    4.1335 C.ar    1  UNL1        0.1453
     33 C          60.5685   91.5902    4.4541 C.ar    1  UNL1        0.0372
     34 C          60.5459   90.3991    5.3656 C.ar    1  UNL1        0.0002
     35 O          59.3169   93.5047    3.2220 O.3     1  UNL1       -0.4535
     36 C          60.1030   93.4573    1.9454 C.ar    1  UNL1        0.1453
     37 C          61.4238   94.1620    1.8514 C.ar    1  UNL1        0.0375
     38 C          62.2100   94.1146    0.5748 C.ar    1  UNL1        0.0043
     39 C          61.6754   93.3626   -0.6078 C.ar    1  UNL1        0.0142
     40 C          60.3545   92.6578   -0.5138 C.ar    1  UNL1        0.0043
     41 C          59.5683   92.7052    0.7628 C.ar    1  UNL1        0.0375
     42 C          62.4616   93.3152   -1.8843 C.2     1  UNL1        0.0729
     43 O          61.7525   93.3793   -3.2047 O.co2   1  UNL1       -0.5446
     44 O          63.9567   93.2037   -1.8407 O.co2   1  UNL1       -0.5446
@<TRIPOS>UNITY_ATOM_ATTR
43 1
charge -1
@<TRIPOS>BOND
     1    26    27    1
     2    27    25    1
     3    25    24    1
     4    24     1    1
     5     1     2   am
     6     2     3    2
     7     2     4    1
     8     4    15    1
     9    15    16    1
    10    15    18    1
    11    18    19    1
    12    19    20    1
    13    20    21    1
    14    21    22    1
    15    22    23    1
    16     4     5    1
    17     5     6   am
    18     6     7    2
    19     6     8    1
    20     8     9    1
    21     9    10    1
    22    10    11    1
    23    11    28    1
    24    28    29    1
    25    29    30   ar
    26    30    31   ar
    27    31    32   ar
    28    32    35    1
    29    35    36    1
    30    36    37   ar
    31    37    38   ar
    32    38    39   ar
    33    39    42    1
    34    42    43   ar
    35    42    44   ar
    36    39    40   ar
    37    40    41   ar
    38    32    33   ar
    39    33    34   ar
    40    11    12    1
    41    12    13    1
    42     8     1    1
    43    34    29   ar
    44    23    18    1
    45    13     8    1
    46    41    36   ar
    47    16    17    1
    48     5    14    1
@<TRIPOS>MOLECULE
*****
 44 48 0 0 0
SMALL
GASTEIGER

@<TRIPOS>ATOM
      1 N          61.6125   87.0076   10.4123 N.am    1  UNL1       -0.2733
      2 C          62.4768   86.0205   11.1394 C.2     1  UNL1        0.2462
      3 O          62.9868   86.3396   12.5135 O.2     1  UNL1       -0.2730
      4 C          62.8311   84.7144   10.4925 C.3     1  UNL1        0.1759
      5 N          62.3212   84.3953    9.1184 N.am    1  UNL1       -0.2951
      6 C          61.4569   85.3823    8.3913 C.2     1  UNL1        0.2390
      7 O          60.9470   85.0632    7.0172 O.2     1  UNL1       -0.2734
      8 C          61.1026   86.6885    9.0382 C.3     1  UNL1        0.1314
      9 C          60.7482   87.9946    9.6851 C.3     1  UNL1        0.0445
     10 C          59.8840   88.9816    8.9579 C.3     1  UNL1        0.0745
     11 N          59.3740   88.6625    7.5838 N.3     1  UNL1       -0.2688
     12 C          59.7283   87.3564    6.9369 C.3     1  UNL1        0.0745
     13 C          60.5926   86.3694    7.6641 C.3     1  UNL1        0.0445
     14 H          62.5538   83.5381    8.6939 H       1  UNL1        0.1499
     15 C          63.6955   83.7274   11.2197 C.3     1  UNL1        0.1372
     16 O          65.1710   83.6834   10.9534 O.3     1  UNL1       -0.3823
     17 H          65.3999   84.3533   10.2903 H       1  UNL1        0.2104
     18 C          63.0843   82.7843   12.2132 C.3     1  UNL1        0.0291
     19 C          62.6464   83.2897   13.5559 C.3     1  UNL1        0.0025
     20 C          62.0352   82.3466   14.5494 C.3     1  UNL1        0.0001
     21 C          61.8618   80.8981   14.2001 C.3     1  UNL1        0.0000
     22 C          62.2997   80.3928   12.8574 C.3     1  UNL1        0.0001
     23 C          62.9109   81.3359   11.8639 C.3     1  UNL1        0.0025
     24 C          61.2582   88.3137   11.0592 C.3     1  UNL1        0.0938
     25 C          62.3375   89.1851   11.6299 C.3     1  UNL1        0.0215
     26 C          62.9428   91.0834    9.9626 C.3     1  UNL1        0.0001
     27 C          62.3850   90.6439   11.2839 C.3     1  UNL1        0.0018
     28 C          58.5097   89.6496    6.8566 C.3     1  UNL1        0.0992
     29 C          59.1041   90.5290    5.7968 C.ar    1  UNL1       -0.0059
     30 C          60.5680   90.4397    5.4822 C.ar    1  UNL1        0.0002
     31 C          61.1623   91.3191    4.4222 C.ar    1  UNL1        0.0372
     32 C          60.2928   92.2878    3.6770 C.ar    1  UNL1        0.1453
     33 C          58.8289   92.3771    3.9916 C.ar    1  UNL1        0.0372
     34 C          58.2345   91.4977    5.0515 C.ar    1  UNL1        0.0002
     35 O          60.8871   93.1672    2.6171 O.3     1  UNL1       -0.4535
     36 C          60.1647   93.3693    1.3182 C.ar    1  UNL1        0.1453
     37 C          60.0170   92.2276    0.3567 C.ar    1  UNL1        0.0375
     38 C          59.2946   92.4296   -0.9423 C.ar    1  UNL1        0.0043
     39 C          58.7199   93.7734   -1.2797 C.ar    1  UNL1        0.0142
     40 C          58.8675   94.9152   -0.3182 C.ar    1  UNL1        0.0043
     41 C          59.5900   94.7132    0.9808 C.ar    1  UNL1        0.0375
     42 C          57.9974   93.9754   -2.5787 C.2     1  UNL1        0.0729
     43 O          56.5053   94.1286   -2.5910 O.co2   1  UNL1       -0.5446
     44 O          58.7671   94.0243   -3.8652 O.co2   1  UNL1       -0.5446
@<TRIPOS>UNITY_ATOM_ATTR
43 1
charge -1
@<TRIPOS>BOND
     1    26    27    1
     2    27    25    1
     3    25    24    1
     4    24     1    1
     5     1     2   am
     6     2     3    2
     7     2     4    1
     8     4    15    1
     9    15    16    1
    10    15    18    1
    11    18    19    1
    12    19    20    1
    13    20    21    1
    14    21    22    1
    15    22    23    1
    16     4     5    1
    17     5     6   am
    18     6     7    2
    19     6     8    1
    20     8     9    1
    21     9    10    1
    22    10    11    1
    23    11    28    1
    24    28    29    1
    25    29    30   ar
    26    30    31   ar
    27    31    32   ar
    28    32    35    1
    29    35    36    1
    30    36    37   ar
    31    37    38   ar
    32    38    39   ar
    33    39    42    1
    34    42    43   ar
    35    42    44   ar
    36    39    40   ar
    37    40    41   ar
    38    32    33   ar
    39    33    34   ar
    40    11    12    1
    41    12    13    1
    42     8     1    1
    43    34    29   ar
    44    23    18    1
    45    13     8    1
    46    41    36   ar
    47    16    17    1
    48     5    14    1
@<TRIPOS>MOLECULE
*****
 44 48 0 0 0
SMALL
GASTEIGER

@<TRIPOS>ATOM
      1 N          62.1965   87.4937   11.1026 N.am    1  UNL1       -0.2733
      2 C          63.0372   87.4851   12.3449 C.2     1  UNL1        0.2462
      3 O          63.6238   86.1982   12.8446 O.2     1  UNL1       -0.2730
      4 C          63.2913   88.7634   13.0874 C.3     1  UNL1        0.1759
      5 N          62.7047   90.0503   12.5877 N.am    1  UNL1       -0.2951
      6 C          61.8640   90.0589   11.3454 C.2     1  UNL1        0.2390
      7 O          61.2774   91.3459   10.8457 O.2     1  UNL1       -0.2734
      8 C          61.6099   88.7806   10.6028 C.3     1  UNL1        0.1314
      9 C          61.3559   87.5023    9.8603 C.3     1  UNL1        0.0445
     10 C          60.5152   87.5109    8.6181 C.3     1  UNL1        0.0745
     11 N          59.9286   88.7978    8.1184 N.3     1  UNL1       -0.2688
     12 C          60.1827   90.0761    8.8609 C.3     1  UNL1        0.0745
     13 C          61.0233   90.0675   10.1031 C.3     1  UNL1        0.0445
     14 H          62.8714   90.8893   13.0750 H       1  UNL1        0.1499
     15 C          64.1319   88.7548   14.3297 C.3     1  UNL1        0.1372
     16 O          65.3665   89.6035   14.4057 O.3     1  UNL1       -0.3823
     17 H          65.4753   90.0911   13.5743 H       1  UNL1        0.2104
     18 C          63.7381   87.8976   15.4959 C.3     1  UNL1        0.0291
     19 C          64.0351   86.4274   15.4802 C.3     1  UNL1        0.0025
     20 C          63.6412   85.5702   16.6464 C.3     1  UNL1        0.0001
     21 C          62.9504   86.1832   17.8284 C.3     1  UNL1        0.0000
     22 C          62.6534   87.6535   17.8441 C.3     1  UNL1        0.0001
     23 C          63.0473   88.5107   16.6778 C.3     1  UNL1        0.0025
     24 C          61.9425   86.2154   10.3601 C.3     1  UNL1        0.0938
     25 C          62.9900   85.6613    9.4404 C.3     1  UNL1        0.0215
     26 C          63.6222   83.5109   10.7541 C.3     1  UNL1        0.0001
     27 C          63.3033   84.1945    9.4576 C.3     1  UNL1        0.0018
     28 C          59.0880   88.8064    6.8761 C.3     1  UNL1        0.0992
     29 C          59.1495   89.9743    5.9369 C.ar    1  UNL1       -0.0059
     30 C          57.8904   90.6899    5.5463 C.ar    1  UNL1        0.0002
     31 C          57.9520   91.8579    4.6071 C.ar    1  UNL1        0.0372
     32 C          59.2727   92.3102    4.0584 C.ar    1  UNL1        0.1453
     33 C          60.5319   91.5946    4.4489 C.ar    1  UNL1        0.0372
     34 C          60.4703   90.4267    5.3881 C.ar    1  UNL1        0.0002
     35 O          59.3343   93.4781    3.1192 O.3     1  UNL1       -0.4535
     36 C          60.4734   93.6030    2.1514 C.ar    1  UNL1        0.1453
     37 C          60.7430   92.5059    1.1647 C.ar    1  UNL1        0.0375
     38 C          61.8822   92.6308    0.1968 C.ar    1  UNL1        0.0043
     39 C          62.7517   93.8528    0.2157 C.ar    1  UNL1        0.0142
     40 C          62.4822   94.9500    1.2024 C.ar    1  UNL1        0.0043
     41 C          61.3430   94.8251    2.1702 C.ar    1  UNL1        0.0375
     42 C          63.8909   93.9777   -0.7522 C.2     1  UNL1        0.0729
     43 O          63.7532   93.4405   -2.1460 O.co2   1  UNL1       -0.5446
     44 O          65.1677   94.6397   -0.3263 O.co2   1  UNL1       -0.5446
@<TRIPOS>UNITY_ATOM_ATTR
43 1
charge -1
@<TRIPOS>BOND
     1    26    27    1
     2    27    25    1
     3    25    24    1
     4    24     1    1
     5     1     2   am
     6     2     3    2
     7     2     4    1
     8     4    15    1
     9    15    16    1
    10    15    18    1
    11    18    19    1
    12    19    20    1
    13    20    21    1
    14    21    22    1
    15    22    23    1
    16     4     5    1
    17     5     6   am
    18     6     7    2
    19     6     8    1
    20     8     9    1
    21     9    10    1
    22    10    11    1
    23    11    28    1
    24    28    29    1
    25    29    30   ar
    26    30    31   ar
    27    31    32   ar
    28    32    35    1
    29    35    36    1
    30    36    37   ar
    31    37    38   ar
    32    38    39   ar
    33    39    42    1
    34    42    43   ar
    35    42    44   ar
    36    39    40   ar
    37    40    41   ar
    38    32    33   ar
    39    33    34   ar
    40    11    12    1
    41    12    13    1
    42     8     1    1
    43    34    29   ar
    44    23    18    1
    45    13     8    1
    46    41    36   ar
    47    16    17    1
    48     5    14    1
@<TRIPOS>MOLECULE
*****
 44 48 0 0 0
SMALL
GASTEIGER

@<TRIPOS>ATOM
      1 N          64.5216   91.9121   12.6248 N.am    1  UNL1       -0.2733
      2 C          65.1172   92.8428   11.6102 C.2     1  UNL1        0.2462
      3 O          64.7106   92.7416   10.1699 O.2     1  UNL1       -0.2730
      4 C          66.1192   93.8746   12.0360 C.3     1  UNL1        0.1759
      5 N          66.5257   93.9758   13.4763 N.am    1  UNL1       -0.2951
      6 C          65.9303   93.0452   14.4908 C.2     1  UNL1        0.2390
      7 O          66.3369   93.1463   15.9311 O.2     1  UNL1       -0.2734
      8 C          64.9282   92.0133   14.0651 C.3     1  UNL1        0.1314
      9 C          63.9262   90.9815   13.6393 C.3     1  UNL1        0.0445
     10 C          63.3308   90.0509   14.6539 C.3     1  UNL1        0.0745
     11 N          63.7373   90.1521   16.0942 N.3     1  UNL1       -0.2688
     12 C          64.7394   91.1839   16.5199 C.3     1  UNL1        0.0745
     13 C          65.3348   92.1145   15.5054 C.3     1  UNL1        0.0445
     14 H          67.1834   94.6530   13.7557 H       1  UNL1        0.1499
     15 C          66.7147   94.8053   11.0214 C.3     1  UNL1        0.1372
     16 O          66.5860   96.2893   11.1983 O.3     1  UNL1       -0.3823
     17 H          66.0938   96.4763   12.0129 H       1  UNL1        0.2104
     18 C          67.4388   94.2520    9.8300 C.3     1  UNL1        0.0291
     19 C          67.4036   94.9871    8.5230 C.3     1  UNL1        0.0025
     20 C          68.1277   94.4339    7.3316 C.3     1  UNL1        0.0001
     21 C          68.8871   93.1454    7.4472 C.3     1  UNL1        0.0000
     22 C          68.9222   92.4102    8.7542 C.3     1  UNL1        0.0001
     23 C          68.1981   92.9636    9.9456 C.3     1  UNL1        0.0025
     24 C          63.5196   90.8803   12.1990 C.3     1  UNL1        0.0938
     25 C          62.6374   91.1361   11.0132 C.3     1  UNL1        0.0215
     26 C          62.3031   88.5796   10.6930 C.3     1  UNL1        0.0001
     27 C          62.1146   89.9855   10.2053 C.3     1  UNL1        0.0018
     28 C          63.1418   89.2214   17.1088 C.3     1  UNL1        0.0992
     29 C          63.0895   87.7475   16.8349 C.ar    1  UNL1       -0.0059
     30 C          62.2372   86.8559   17.6885 C.ar    1  UNL1        0.0002
     31 C          62.1849   85.3820   17.4146 C.ar    1  UNL1        0.0372
     32 C          62.9848   84.7998   16.2872 C.ar    1  UNL1        0.1453
     33 C          63.8371   85.6915   15.4336 C.ar    1  UNL1        0.0372
     34 C          63.8894   87.1653   15.7074 C.ar    1  UNL1        0.0002
     35 O          62.9325   83.3260   16.0134 O.3     1  UNL1       -0.4535
     36 C          63.1032   82.8168   14.6128 C.ar    1  UNL1        0.1453
     37 C          64.2490   83.2995   13.7737 C.ar    1  UNL1        0.0375
     38 C          64.4197   82.7903   12.3731 C.ar    1  UNL1        0.0043
     39 C          63.4445   81.7985   11.8116 C.ar    1  UNL1        0.0142
     40 C          62.2986   81.3158   12.6507 C.ar    1  UNL1        0.0043
     41 C          62.1279   81.8250   14.0513 C.ar    1  UNL1        0.0375
     42 C          63.6152   81.2894   10.4110 C.2     1  UNL1        0.0729
     43 O          64.5958   81.9492    9.4874 O.co2   1  UNL1       -0.5446
     44 O          62.8052   80.1204    9.9340 O.co2   1  UNL1       -0.5446
@<TRIPOS>UNITY_ATOM_ATTR
43 1
charge -1
@<TRIPOS>BOND
     1    26    27    1
     2    27    25    1
     3    25    24    1
     4    24     1    1
     5     1     2   am
     6     2     3    2
     7     2     4    1
     8     4    15    1
     9    15    16    1
    10    15    18    1
    11    18    19    1
    12    19    20    1
    13    20    21    1
    14    21    22    1
    15    22    23    1
    16     4     5    1
    17     5     6   am
    18     6     7    2
    19     6     8    1
    20     8     9    1
    21     9    10    1
    22    10    11    1
    23    11    28    1
    24    28    29    1
    25    29    30   ar
    26    30    31   ar
    27    31    32   ar
    28    32    35    1
    29    35    36    1
    30    36    37   ar
    31    37    38   ar
    32    38    39   ar
    33    39    42    1
    34    42    43   ar
    35    42    44   ar
    36    39    40   ar
    37    40    41   ar
    38    32    33   ar
    39    33    34   ar
    40    11    12    1
    41    12    13    1
    42     8     1    1
    43    34    29   ar
    44    23    18    1
    45    13     8    1
    46    41    36   ar
    47    16    17    1
    48     5    14    1
