@<TRIPOS>MOLECULE
*****
 31 34 0 0 0
SMALL
GASTEIGER

@<TRIPOS>ATOM
      1 C          62.5770   84.5754   16.0386 C.3     1  UNL1        0.0942
      2 N          62.8521   83.4902   15.0403 N.pl3   1  UNL1       -0.3039
      3 H          62.9825   82.5630   15.3445 H       1  UNL1        0.1496
      4 C          64.4037   81.7157   13.1847 C.3     1  UNL1        0.1363
      5 N          63.7042   82.9304   12.6506 N.ar    1  UNL1       -0.2669
      6 C          62.9284   83.8177   13.5784 C.ar    1  UNL1        0.2002
      7 N          62.2289   85.0324   13.0444 N.ar    1  UNL1       -0.2150
      8 C          62.3052   85.3598   11.5826 C.ar    1  UNL1        0.0895
      9 C          61.6056   86.5745   11.0486 C.ar    1  UNL1        0.0307
     10 C          61.6820   86.9019    9.5868 C.ar    1  UNL1        0.0592
     11 CL         60.9824   88.1166    9.0527 Cl      1  UNL1       -0.0822
     12 C          62.4578   86.0146    8.6589 C.ar    1  UNL1        0.0116
     13 C          63.1573   84.7999    9.1929 C.ar    1  UNL1        0.0071
     14 C          63.0810   84.4725   10.6547 C.ar    1  UNL1        0.0740
     15 C          63.7805   83.2578   11.1888 C.ar    1  UNL1        0.2643
     16 O          64.5563   82.3705   10.2610 O.2     1  UNL1       -0.2668
     17 C          63.6811   85.4943   16.4707 C.3     1  UNL1        0.0476
     18 C          63.6849   86.9254   16.0212 C.ar    1  UNL1       -0.0203
     19 C          63.0718   87.9853   16.8877 C.ar    1  UNL1       -0.0011
     20 C          63.0757   89.4164   16.4383 C.ar    1  UNL1        0.0372
     21 C          63.6925   89.7875   15.1224 C.ar    1  UNL1        0.1453
     22 C          64.3056   88.7276   14.2559 C.ar    1  UNL1        0.0372
     23 C          64.3018   87.2966   14.7053 C.ar    1  UNL1       -0.0011
     24 O          63.6964   91.2186   14.6728 O.3     1  UNL1       -0.4535
     25 C          64.5822   91.6467   13.5406 C.ar    1  UNL1        0.1454
     26 C          64.0436   91.6876   12.1411 C.ar    1  UNL1        0.0384
     27 C          64.9294   92.1156   11.0088 C.ar    1  UNL1        0.0145
     28 C          66.3538   92.5028   11.2760 C.ar    1  UNL1        0.0579
     29 CL         67.2396   92.9309   10.1437 Cl      1  UNL1       -0.0822
     30 C          66.8923   92.4620   12.6754 C.ar    1  UNL1        0.0145
     31 C          66.0065   92.0339   13.8076 C.ar    1  UNL1        0.0384
@<TRIPOS>BOND
     1     4     5    1
     2     5     6   ar
     3     6     2    1
     4     2     1    1
     5     1    17    1
     6    17    18    1
     7    18    19   ar
     8    19    20   ar
     9    20    21   ar
    10    21    24    1
    11    24    25    1
    12    25    26   ar
    13    26    27   ar
    14    27    28   ar
    15    28    29    1
    16    28    30   ar
    17    30    31   ar
    18    21    22   ar
    19    22    23   ar
    20     6     7   ar
    21     7     8   ar
    22     8     9   ar
    23     9    10   ar
    24    10    11    1
    25    10    12   ar
    26    12    13   ar
    27    13    14   ar
    28    14    15   ar
    29    15    16    2
    30    15     5   ar
    31    23    18   ar
    32    14     8   ar
    33    31    25   ar
    34     2     3    1
@<TRIPOS>MOLECULE
*****
 31 34 0 0 0
SMALL
GASTEIGER

@<TRIPOS>ATOM
      1 C          62.3714   84.4994   15.9031 C.3     1  UNL1        0.0942
      2 N          63.0505   83.5720   14.9394 N.pl3   1  UNL1       -0.3039
      3 H          63.4899   82.7550   15.2691 H       1  UNL1        0.1496
      4 C          64.5198   81.7868   13.0279 C.3     1  UNL1        0.1363
      5 N          63.7947   82.9967   12.5176 N.ar    1  UNL1       -0.2669
      6 C          63.0601   83.8894   13.4734 C.ar    1  UNL1        0.2002
      7 N          62.3350   85.0992   12.9631 N.ar    1  UNL1       -0.2150
      8 C          62.3446   85.4166   11.4971 C.ar    1  UNL1        0.0895
      9 C          61.6196   86.6265   10.9868 C.ar    1  UNL1        0.0307
     10 C          61.6292   86.9437    9.5208 C.ar    1  UNL1        0.0592
     11 CL         60.9041   88.1537    9.0105 Cl      1  UNL1       -0.0822
     12 C          62.3639   86.0511    8.5651 C.ar    1  UNL1        0.0116
     13 C          63.0889   84.8412    9.0753 C.ar    1  UNL1        0.0071
     14 C          63.0793   84.5240   10.5413 C.ar    1  UNL1        0.0740
     15 C          63.8044   83.3140   11.0516 C.ar    1  UNL1        0.2643
     16 O          64.5390   82.4214   10.0959 O.2     1  UNL1       -0.2668
     17 C          63.1856   85.4522   16.7273 C.3     1  UNL1        0.0476
     18 C          63.4206   86.8520   16.2420 C.ar    1  UNL1       -0.0203
     19 C          64.1650   87.0867   14.9611 C.ar    1  UNL1       -0.0011
     20 C          64.4000   88.4864   14.4758 C.ar    1  UNL1        0.0372
     21 C          63.8906   89.6514   15.2715 C.ar    1  UNL1        0.1453
     22 C          63.1462   89.4167   16.5524 C.ar    1  UNL1        0.0372
     23 C          62.9112   88.0170   17.0377 C.ar    1  UNL1       -0.0011
     24 O          64.1256   91.0512   14.7862 O.3     1  UNL1       -0.4535
     25 C          65.4801   91.6786   14.9335 C.ar    1  UNL1        0.1454
     26 C          66.4779   91.5795   13.8179 C.ar    1  UNL1        0.0384
     27 C          67.8324   92.2069   13.9652 C.ar    1  UNL1        0.0145
     28 C          68.1891   92.9333   15.2282 C.ar    1  UNL1        0.0579
     29 CL         69.5436   93.5607   15.3755 Cl      1  UNL1       -0.0822
     30 C          67.1913   93.0324   16.3437 C.ar    1  UNL1        0.0145
     31 C          65.8368   92.4050   16.1964 C.ar    1  UNL1        0.0384
@<TRIPOS>BOND
     1     4     5    1
     2     5     6   ar
     3     6     2    1
     4     2     1    1
     5     1    17    1
     6    17    18    1
     7    18    19   ar
     8    19    20   ar
     9    20    21   ar
    10    21    24    1
    11    24    25    1
    12    25    26   ar
    13    26    27   ar
    14    27    28   ar
    15    28    29    1
    16    28    30   ar
    17    30    31   ar
    18    21    22   ar
    19    22    23   ar
    20     6     7   ar
    21     7     8   ar
    22     8     9   ar
    23     9    10   ar
    24    10    11    1
    25    10    12   ar
    26    12    13   ar
    27    13    14   ar
    28    14    15   ar
    29    15    16    2
    30    15     5   ar
    31    23    18   ar
    32    14     8   ar
    33    31    25   ar
    34     2     3    1
@<TRIPOS>MOLECULE
*****
 31 34 0 0 0
SMALL
GASTEIGER

@<TRIPOS>ATOM
      1 C          60.2796   89.4032   10.7783 C.3     1  UNL1        0.0942
      2 N          59.8303   87.9925   10.5377 N.pl3   1  UNL1       -0.3039
      3 H          58.8703   87.7879   10.4615 H       1  UNL1        0.1496
      4 C          60.6920   87.0468    7.8242 C.3     1  UNL1        0.1363
      5 N          61.2745   86.4206    9.0566 N.ar    1  UNL1       -0.2669
      6 C          60.8436   86.8935   10.4134 C.ar    1  UNL1        0.2002
      7 N          61.4260   86.2674   11.6457 N.ar    1  UNL1       -0.2150
      8 C          62.4394   85.1684   11.5214 C.ar    1  UNL1        0.0895
      9 C          63.0218   84.5423   12.7537 C.ar    1  UNL1        0.0307
     10 C          64.0351   83.4433   12.6293 C.ar    1  UNL1        0.0592
     11 CL         64.6175   82.8172   13.8617 Cl      1  UNL1       -0.0822
     12 C          64.4659   82.9705   11.2726 C.ar    1  UNL1        0.0116
     13 C          63.8835   83.5966   10.0402 C.ar    1  UNL1        0.0071
     14 C          62.8702   84.6955   10.1646 C.ar    1  UNL1        0.0740
     15 C          62.2878   85.3217    8.9322 C.ar    1  UNL1        0.2643
     16 O          62.7186   84.8489    7.5755 O.2     1  UNL1       -0.2668
     17 C          60.9551   89.7657   12.0675 C.3     1  UNL1        0.0476
     18 C          62.3016   90.4267   12.0488 C.ar    1  UNL1       -0.0203
     19 C          62.8237   91.0291   10.7782 C.ar    1  UNL1       -0.0011
     20 C          64.1701   91.6900   10.7594 C.ar    1  UNL1        0.0372
     21 C          64.9943   91.7486   12.0112 C.ar    1  UNL1        0.1453
     22 C          64.4721   91.1462   13.2819 C.ar    1  UNL1        0.0372
     23 C          63.1258   90.4852   13.3006 C.ar    1  UNL1       -0.0011
     24 O          66.3407   92.4095   11.9925 O.3     1  UNL1       -0.4535
     25 C          66.6171   93.5211   11.0239 C.ar    1  UNL1        0.1454
     26 C          66.1510   94.9141   11.3280 C.ar    1  UNL1        0.0384
     27 C          66.4275   96.0256   10.3595 C.ar    1  UNL1        0.0145
     28 C          67.1700   95.7441    9.0868 C.ar    1  UNL1        0.0579
     29 CL         67.4464   96.8557    8.1183 Cl      1  UNL1       -0.0822
     30 C          67.6360   94.3512    8.7828 C.ar    1  UNL1        0.0145
     31 C          67.3596   93.2397    9.7514 C.ar    1  UNL1        0.0384
@<TRIPOS>BOND
     1     4     5    1
     2     5     6   ar
     3     6     2    1
     4     2     1    1
     5     1    17    1
     6    17    18    1
     7    18    19   ar
     8    19    20   ar
     9    20    21   ar
    10    21    24    1
    11    24    25    1
    12    25    26   ar
    13    26    27   ar
    14    27    28   ar
    15    28    29    1
    16    28    30   ar
    17    30    31   ar
    18    21    22   ar
    19    22    23   ar
    20     6     7   ar
    21     7     8   ar
    22     8     9   ar
    23     9    10   ar
    24    10    11    1
    25    10    12   ar
    26    12    13   ar
    27    13    14   ar
    28    14    15   ar
    29    15    16    2
    30    15     5   ar
    31    23    18   ar
    32    14     8   ar
    33    31    25   ar
    34     2     3    1
@<TRIPOS>MOLECULE
*****
 31 34 0 0 0
SMALL
GASTEIGER

@<TRIPOS>ATOM
      1 C          62.7862   83.5524   14.6928 C.3     1  UNL1        0.0942
      2 N          63.1870   83.2399   13.2815 N.pl3   1  UNL1       -0.3039
      3 H          63.6915   82.4180   13.0836 H       1  UNL1        0.1496
      4 C          64.0355   82.6423   10.4668 C.3     1  UNL1        0.1363
      5 N          63.2433   83.8809   10.7644 N.ar    1  UNL1       -0.2669
      6 C          62.8190   84.1797   12.1718 C.ar    1  UNL1        0.2002
      7 N          62.0268   85.4181   12.4694 N.ar    1  UNL1       -0.2150
      8 C          61.6589   86.3579   11.3596 C.ar    1  UNL1        0.0895
      9 C          60.8667   87.5963   11.6572 C.ar    1  UNL1        0.0307
     10 C          60.4988   88.5360   10.5475 C.ar    1  UNL1        0.0592
     11 CL         59.7066   89.7746   10.8451 Cl      1  UNL1       -0.0822
     12 C          60.9231   88.2372    9.1401 C.ar    1  UNL1        0.0116
     13 C          61.7152   86.9988    8.8425 C.ar    1  UNL1        0.0071
     14 C          62.0831   86.0591    9.9522 C.ar    1  UNL1        0.0740
     15 C          62.8753   84.8205    9.6546 C.ar    1  UNL1        0.2643
     16 O          63.2996   84.5218    8.2472 O.2     1  UNL1       -0.2668
     17 C          63.7450   84.2569   15.6062 C.3     1  UNL1        0.0476
     18 C          63.7404   85.7547   15.6874 C.ar    1  UNL1       -0.0203
     19 C          64.4239   86.5654   14.6263 C.ar    1  UNL1       -0.0011
     20 C          64.4193   88.0632   14.7075 C.ar    1  UNL1        0.0372
     21 C          63.7314   88.7503   15.8496 C.ar    1  UNL1        0.1453
     22 C          63.0480   87.9396   16.9107 C.ar    1  UNL1        0.0372
     23 C          63.0525   86.4418   16.8295 C.ar    1  UNL1       -0.0011
     24 O          63.7269   90.2481   15.9308 O.3     1  UNL1       -0.4535
     25 C          64.4152   91.0586   14.8729 C.ar    1  UNL1        0.1454
     26 C          63.8989   91.0467   13.4645 C.ar    1  UNL1        0.0384
     27 C          64.5872   91.8572   12.4065 C.ar    1  UNL1        0.0145
     28 C          65.7918   92.6796   12.7569 C.ar    1  UNL1        0.0579
     29 CL         66.4801   93.4901   11.6989 Cl      1  UNL1       -0.0822
     30 C          66.3080   92.6915   14.1652 C.ar    1  UNL1        0.0145
     31 C          65.6197   91.8810   15.2232 C.ar    1  UNL1        0.0384
@<TRIPOS>BOND
     1     4     5    1
     2     5     6   ar
     3     6     2    1
     4     2     1    1
     5     1    17    1
     6    17    18    1
     7    18    19   ar
     8    19    20   ar
     9    20    21   ar
    10    21    24    1
    11    24    25    1
    12    25    26   ar
    13    26    27   ar
    14    27    28   ar
    15    28    29    1
    16    28    30   ar
    17    30    31   ar
    18    21    22   ar
    19    22    23   ar
    20     6     7   ar
    21     7     8   ar
    22     8     9   ar
    23     9    10   ar
    24    10    11    1
    25    10    12   ar
    26    12    13   ar
    27    13    14   ar
    28    14    15   ar
    29    15    16    2
    30    15     5   ar
    31    23    18   ar
    32    14     8   ar
    33    31    25   ar
    34     2     3    1
@<TRIPOS>MOLECULE
*****
 31 34 0 0 0
SMALL
GASTEIGER

@<TRIPOS>ATOM
      1 C          62.3709   87.3617   11.3796 C.3     1  UNL1        0.0942
      2 N          63.2028   86.7249   12.4531 N.pl3   1  UNL1       -0.3039
      3 H          63.7986   87.2786   13.0077 H       1  UNL1        0.1496
      4 C          63.1190   85.6410   15.2492 C.3     1  UNL1        0.1363
      5 N          63.0850   84.7023   14.0796 N.ar    1  UNL1       -0.2669
      6 C          63.1268   85.2443   12.6815 C.ar    1  UNL1        0.2002
      7 N          63.0928   84.3057   11.5120 N.ar    1  UNL1       -0.2150
      8 C          63.0169   82.8251   11.7405 C.ar    1  UNL1        0.0895
      9 C          62.9828   81.8865   10.5709 C.ar    1  UNL1        0.0307
     10 C          62.9069   80.4060   10.7994 C.ar    1  UNL1        0.0592
     11 CL         62.8728   79.4673    9.6298 Cl      1  UNL1       -0.0822
     12 C          62.8650   79.8641   12.1975 C.ar    1  UNL1        0.0116
     13 C          62.8991   80.8026   13.3670 C.ar    1  UNL1        0.0071
     14 C          62.9750   82.2831   13.1385 C.ar    1  UNL1        0.0740
     15 C          63.0090   83.2218   14.3081 C.ar    1  UNL1        0.2643
     16 O          62.9671   82.6799   15.7061 O.2     1  UNL1       -0.2668
     17 C          61.9276   88.7877   11.5212 C.3     1  UNL1        0.0476
     18 C          62.9433   89.8716   11.7300 C.ar    1  UNL1       -0.0203
     19 C          63.6065   90.0307   13.0660 C.ar    1  UNL1       -0.0011
     20 C          64.6222   91.1146   13.2748 C.ar    1  UNL1        0.0372
     21 C          64.9746   92.0394   12.1476 C.ar    1  UNL1        0.1453
     22 C          64.3114   91.8803   10.8116 C.ar    1  UNL1        0.0372
     23 C          63.2958   90.7964   10.6028 C.ar    1  UNL1       -0.0011
     24 O          65.9903   93.1233   12.3564 O.3     1  UNL1       -0.4535
     25 C          66.3524   94.0397   11.2255 C.ar    1  UNL1        0.1454
     26 C          67.2471   93.5541   10.1238 C.ar    1  UNL1        0.0384
     27 C          67.6093   94.4705    8.9928 C.ar    1  UNL1        0.0145
     28 C          67.0767   95.8726    8.9636 C.ar    1  UNL1        0.0579
     29 CL         67.4388   96.7890    7.8326 Cl      1  UNL1       -0.0822
     30 C          66.1820   96.3581   10.0653 C.ar    1  UNL1        0.0145
     31 C          65.8199   95.4417   11.1963 C.ar    1  UNL1        0.0384
@<TRIPOS>BOND
     1     4     5    1
     2     5     6   ar
     3     6     2    1
     4     2     1    1
     5     1    17    1
     6    17    18    1
     7    18    19   ar
     8    19    20   ar
     9    20    21   ar
    10    21    24    1
    11    24    25    1
    12    25    26   ar
    13    26    27   ar
    14    27    28   ar
    15    28    29    1
    16    28    30   ar
    17    30    31   ar
    18    21    22   ar
    19    22    23   ar
    20     6     7   ar
    21     7     8   ar
    22     8     9   ar
    23     9    10   ar
    24    10    11    1
    25    10    12   ar
    26    12    13   ar
    27    13    14   ar
    28    14    15   ar
    29    15    16    2
    30    15     5   ar
    31    23    18   ar
    32    14     8   ar
    33    31    25   ar
    34     2     3    1
@<TRIPOS>MOLECULE
*****
 31 34 0 0 0
SMALL
GASTEIGER

@<TRIPOS>ATOM
      1 C          60.6631   88.2632    9.9655 C.3     1  UNL1        0.0942
      2 N          61.9178   87.5442    9.5671 N.pl3   1  UNL1       -0.3039
      3 H          62.4533   87.8720    8.8088 H       1  UNL1        0.1496
      4 C          63.0676   85.1969    8.0945 C.3     1  UNL1        0.1363
      5 N          62.9315   85.1521    9.5877 N.ar    1  UNL1       -0.2669
      6 C          62.3565   86.3257   10.3240 C.ar    1  UNL1        0.2002
      7 N          62.2204   86.2809   11.8171 N.ar    1  UNL1       -0.2150
      8 C          62.6592   85.0624   12.5740 C.ar    1  UNL1        0.0895
      9 C          62.5230   85.0176   14.0671 C.ar    1  UNL1        0.0307
     10 C          62.9618   83.7992   14.8240 C.ar    1  UNL1        0.0592
     11 CL         62.8256   83.7543   16.3172 Cl      1  UNL1       -0.0822
     12 C          63.5367   82.6255   14.0877 C.ar    1  UNL1        0.0116
     13 C          63.6728   82.6704   12.5946 C.ar    1  UNL1        0.0071
     14 C          63.2341   83.8888   11.8378 C.ar    1  UNL1        0.0740
     15 C          63.3702   83.9336   10.3446 C.ar    1  UNL1        0.2643
     16 O          63.9452   82.7600    9.6083 O.2     1  UNL1       -0.2668
     17 C          60.7096   89.3190   11.0299 C.3     1  UNL1        0.0476
     18 C          61.9867   90.0590   11.2970 C.ar    1  UNL1       -0.0203
     19 C          62.6602   89.9352   12.6316 C.ar    1  UNL1       -0.0011
     20 C          63.9373   90.6751   12.8988 C.ar    1  UNL1        0.0372
     21 C          64.5409   91.5390   11.8313 C.ar    1  UNL1        0.1453
     22 C          63.8674   91.6628   10.4968 C.ar    1  UNL1        0.0372
     23 C          62.5903   90.9229   10.2296 C.ar    1  UNL1       -0.0011
     24 O          65.8181   92.2790   12.0985 O.3     1  UNL1       -0.4535
     25 C          66.3020   93.3147   11.1273 C.ar    1  UNL1        0.1454
     26 C          65.8249   94.7321   11.2427 C.ar    1  UNL1        0.0384
     27 C          66.3087   95.7678   10.2715 C.ar    1  UNL1        0.0145
     28 C          67.2697   95.3860    9.1848 C.ar    1  UNL1        0.0579
     29 CL         67.7536   96.4217    8.2136 Cl      1  UNL1       -0.0822
     30 C          67.7468   93.9686    9.0694 C.ar    1  UNL1        0.0145
     31 C          67.2629   92.9330   10.0406 C.ar    1  UNL1        0.0384
@<TRIPOS>BOND
     1     4     5    1
     2     5     6   ar
     3     6     2    1
     4     2     1    1
     5     1    17    1
     6    17    18    1
     7    18    19   ar
     8    19    20   ar
     9    20    21   ar
    10    21    24    1
    11    24    25    1
    12    25    26   ar
    13    26    27   ar
    14    27    28   ar
    15    28    29    1
    16    28    30   ar
    17    30    31   ar
    18    21    22   ar
    19    22    23   ar
    20     6     7   ar
    21     7     8   ar
    22     8     9   ar
    23     9    10   ar
    24    10    11    1
    25    10    12   ar
    26    12    13   ar
    27    13    14   ar
    28    14    15   ar
    29    15    16    2
    30    15     5   ar
    31    23    18   ar
    32    14     8   ar
    33    31    25   ar
    34     2     3    1
@<TRIPOS>MOLECULE
*****
 31 34 0 0 0
SMALL
GASTEIGER

@<TRIPOS>ATOM
      1 C          59.7776   88.7437    9.4372 C.3     1  UNL1        0.0942
      2 N          60.3648   90.1222    9.5080 N.pl3   1  UNL1       -0.3039
      3 H          60.0250   90.8329    8.9175 H       1  UNL1        0.1496
      4 C          60.1369   89.2204   12.3602 C.3     1  UNL1        0.1363
      5 N          61.3557   89.9670   11.9047 N.ar    1  UNL1       -0.2669
      6 C          61.4696   90.4178   10.4786 C.ar    1  UNL1        0.2002
      7 N          62.6883   91.1643   10.0231 N.ar    1  UNL1       -0.2150
      8 C          63.7931   91.4600   10.9937 C.ar    1  UNL1        0.0895
      9 C          65.0118   92.2065   10.5382 C.ar    1  UNL1        0.0307
     10 C          66.1165   92.5021   11.5088 C.ar    1  UNL1        0.0592
     11 CL         67.3353   93.2486   11.0534 Cl      1  UNL1       -0.0822
     12 C          66.0026   92.0512   12.9349 C.ar    1  UNL1        0.0116
     13 C          64.7839   91.3047   13.3904 C.ar    1  UNL1        0.0071
     14 C          63.6792   91.0091   12.4198 C.ar    1  UNL1        0.0740
     15 C          62.4604   90.2626   12.8753 C.ar    1  UNL1        0.2643
     16 O          62.3465   89.8117   14.3014 O.2     1  UNL1       -0.2668
     17 C          60.3192   87.7474    8.4554 C.3     1  UNL1        0.0476
     18 C          61.2884   86.6967    8.9104 C.ar    1  UNL1       -0.0203
     19 C          62.1114   85.9492    7.9035 C.ar    1  UNL1       -0.0011
     20 C          63.0805   84.8986    8.3584 C.ar    1  UNL1        0.0372
     21 C          63.2266   84.5955    9.8202 C.ar    1  UNL1        0.1453
     22 C          62.4036   85.3431   10.8270 C.ar    1  UNL1        0.0372
     23 C          61.4345   86.3937   10.3721 C.ar    1  UNL1       -0.0011
     24 O          64.1958   83.5449   10.2751 O.3     1  UNL1       -0.4535
     25 C          63.7621   82.5010   11.2612 C.ar    1  UNL1        0.1454
     26 C          63.1419   81.2238   10.7772 C.ar    1  UNL1        0.0384
     27 C          62.7081   80.1800   11.7632 C.ar    1  UNL1        0.0145
     28 C          62.8946   80.4133   13.2333 C.ar    1  UNL1        0.0579
     29 CL         62.4609   79.3695   14.2193 Cl      1  UNL1       -0.0822
     30 C          63.5148   81.6905   13.7171 C.ar    1  UNL1        0.0145
     31 C          63.9486   82.7343   12.7311 C.ar    1  UNL1        0.0384
@<TRIPOS>BOND
     1     4     5    1
     2     5     6   ar
     3     6     2    1
     4     2     1    1
     5     1    17    1
     6    17    18    1
     7    18    19   ar
     8    19    20   ar
     9    20    21   ar
    10    21    24    1
    11    24    25    1
    12    25    26   ar
    13    26    27   ar
    14    27    28   ar
    15    28    29    1
    16    28    30   ar
    17    30    31   ar
    18    21    22   ar
    19    22    23   ar
    20     6     7   ar
    21     7     8   ar
    22     8     9   ar
    23     9    10   ar
    24    10    11    1
    25    10    12   ar
    26    12    13   ar
    27    13    14   ar
    28    14    15   ar
    29    15    16    2
    30    15     5   ar
    31    23    18   ar
    32    14     8   ar
    33    31    25   ar
    34     2     3    1
@<TRIPOS>MOLECULE
*****
 31 34 0 0 0
SMALL
GASTEIGER

@<TRIPOS>ATOM
      1 C          61.2160   88.2248    9.5390 C.3     1  UNL1        0.0942
      2 N          61.0915   86.7461    9.3203 N.pl3   1  UNL1       -0.3039
      3 H          60.4886   86.4008    8.6228 H       1  UNL1        0.1496
      4 C          63.0515   84.8760    8.0314 C.3     1  UNL1        0.1363
      5 N          62.8655   84.8585    9.5198 N.ar    1  UNL1       -0.2669
      6 C          61.8855   85.7936   10.1642 C.ar    1  UNL1        0.2002
      7 N          61.6996   85.7761   11.6525 N.ar    1  UNL1       -0.2150
      8 C          62.4936   84.8235   12.4965 C.ar    1  UNL1        0.0895
      9 C          62.3076   84.8061   13.9848 C.ar    1  UNL1        0.0307
     10 C          63.1016   83.8535   14.8286 C.ar    1  UNL1        0.0592
     11 CL         62.9157   83.8360   16.3170 Cl      1  UNL1       -0.0822
     12 C          64.0816   82.9185   14.1842 C.ar    1  UNL1        0.0116
     13 C          64.2676   82.9359   12.6959 C.ar    1  UNL1        0.0071
     14 C          63.4736   83.8885   11.8521 C.ar    1  UNL1        0.0740
     15 C          63.6595   83.9060   10.3637 C.ar    1  UNL1        0.2643
     16 O          64.6395   82.9709    9.7193 O.2     1  UNL1       -0.2668
     17 C          61.3867   88.7658   10.9276 C.3     1  UNL1        0.0476
     18 C          62.4336   89.8036   11.2049 C.ar    1  UNL1       -0.0203
     19 C          63.1109   89.8470   12.5426 C.ar    1  UNL1       -0.0011
     20 C          64.1578   90.8848   12.8199 C.ar    1  UNL1        0.0372
     21 C          64.5275   91.8792   11.7594 C.ar    1  UNL1        0.1453
     22 C          63.8502   91.8358   10.4217 C.ar    1  UNL1        0.0372
     23 C          62.8033   90.7980   10.1444 C.ar    1  UNL1       -0.0011
     24 O          65.5744   92.9170   12.0367 O.3     1  UNL1       -0.4535
     25 C          66.5215   92.7386   13.1862 C.ar    1  UNL1        0.1454
     26 C          66.1814   93.3049   14.5330 C.ar    1  UNL1        0.0384
     27 C          67.1284   93.1264   15.6824 C.ar    1  UNL1        0.0145
     28 C          68.4155   92.3817   15.4852 C.ar    1  UNL1        0.0579
     29 CL         69.3625   92.2033   16.6347 Cl      1  UNL1       -0.0822
     30 C          68.7555   91.8154   14.1384 C.ar    1  UNL1        0.0145
     31 C          67.8085   91.9939   12.9890 C.ar    1  UNL1        0.0384
@<TRIPOS>BOND
     1     4     5    1
     2     5     6   ar
     3     6     2    1
     4     2     1    1
     5     1    17    1
     6    17    18    1
     7    18    19   ar
     8    19    20   ar
     9    20    21   ar
    10    21    24    1
    11    24    25    1
    12    25    26   ar
    13    26    27   ar
    14    27    28   ar
    15    28    29    1
    16    28    30   ar
    17    30    31   ar
    18    21    22   ar
    19    22    23   ar
    20     6     7   ar
    21     7     8   ar
    22     8     9   ar
    23     9    10   ar
    24    10    11    1
    25    10    12   ar
    26    12    13   ar
    27    13    14   ar
    28    14    15   ar
    29    15    16    2
    30    15     5   ar
    31    23    18   ar
    32    14     8   ar
    33    31    25   ar
    34     2     3    1
