@<TRIPOS>MOLECULE
*****
 44 47 0 0 0
SMALL
GASTEIGER

@<TRIPOS>ATOM
      1 C          64.1845   85.3537   13.7466 C.3     1  UNL1        0.1484
      2 O          65.4038   84.4815   13.7972 O.3     1  UNL1       -0.3810
      3 H          66.1851   85.0280   13.9755 H       1  UNL1        0.2105
      4 C          64.3113   86.8331   13.9593 C.3     1  UNL1        0.1245
      5 C          63.8535   88.9120   15.4488 C.2     1  UNL1        0.2492
      6 O          63.5466   89.5057   16.7917 O.2     1  UNL1       -0.2699
      7 N          64.0044   87.4269   15.3022 N.am    1  UNL1       -0.2735
      8 C          66.0639   93.1473   11.2140 C.ar    1  UNL1        0.2924
      9 N          64.7459   92.5614   10.8023 N.ar    1  UNL1       -0.1946
     10 C          64.3212   91.5864   11.8601 C.ar    1  UNL1        0.1202
     11 C          63.1097   90.7117   11.9908 C.ar    1  UNL1        0.0225
     12 C          62.9538   89.8202   13.1870 C.ar    1  UNL1        0.0063
     13 C          64.0094   89.8035   14.2526 C.ar    1  UNL1        0.0567
     14 C          65.2209   90.6782   14.1219 C.ar    1  UNL1        0.0437
     15 C          65.3768   91.5697   12.9257 C.ar    1  UNL1        0.1662
     16 O          66.4538   92.5343   12.5264 O.2     1  UNL1       -0.4237
     17 N          66.8534   94.1670   10.4480 N.pl3   1  UNL1       -0.2619
     18 C          66.6275   95.6294   10.6933 C.3     1  UNL1        0.1166
     19 C          68.3491   92.3033    9.4284 C.3     1  UNL1        0.0233
     20 C          67.8688   93.7243    9.4366 C.3     1  UNL1        0.0952
     21 C          63.8484   86.5353   16.4984 C.3     1  UNL1        0.0937
     22 C          62.5686   86.5469   17.2806 C.3     1  UNL1        0.0199
     23 C          62.5778   86.9398   18.7282 C.3     1  UNL1        0.0018
     24 C          61.2794   86.1655   16.6151 C.3     1  UNL1        0.0018
     25 C          62.8384   84.7465   13.4835 C.3     1  UNL1        0.1075
     26 N          61.8635   85.4452   12.5826 N.am    1  UNL1       -0.2695
     27 C          62.0575   85.4088   11.0957 C.2     1  UNL1        0.4020
     28 O          63.2262   84.6736   10.5095 O.2     1  UNL1       -0.2264
     29 H          61.0964   85.9278   12.9673 H       1  UNL1        0.1528
     30 O          61.0826   86.1075   10.1948 O.3     1  UNL1       -0.4291
     31 C          61.3401   87.5210    9.7637 C.3     1  UNL1        0.2447
     32 C          60.5776   88.6481   10.3946 C.ar    1  UNL1        0.0714
     33 C          60.4288   90.0328    9.8372 C.ar    1  UNL1        0.1053
     34 N          59.5893   90.8291   10.7918 N.ar    1  UNL1       -0.2350
     35 C          59.2192   89.9366   11.9392 C.ar    1  UNL1        0.1343
     36 S          59.8301   88.5886   11.6937 S.2     1  UNL1       -0.0652
     37 C          62.4670   83.4406   14.1212 C.3     1  UNL1        0.0485
     38 C          62.5354   82.1710   13.3252 C.ar    1  UNL1       -0.0203
     39 C          63.0292   82.1992   11.9092 C.ar    1  UNL1       -0.0019
     40 C          63.0976   80.9297   11.1132 C.ar    1  UNL1        0.0293
     41 C          62.6721   79.6318   11.7334 C.ar    1  UNL1        0.1401
     42 F          62.7405   78.3623   10.9374 F       1  UNL1       -0.2042
     43 C          62.1783   79.6036   13.1495 C.ar    1  UNL1        0.0293
     44 C          62.1100   80.8732   13.9454 C.ar    1  UNL1       -0.0019
@<TRIPOS>BOND
     1    19    20    1
     2    20    17    1
     3    17    18    1
     4    17     8    1
     5     8     9   ar
     6     9    10   ar
     7    10    11   ar
     8    11    12   ar
     9    12    13   ar
    10    13     5    1
    11     5     6    2
    12     5     7   am
    13     7    21    1
    14    21    22    1
    15    22    23    1
    16    22    24    1
    17     7     4    1
    18     4     1    1
    19     1     2    1
    20     1    25    1
    21    25    37    1
    22    37    38    1
    23    38    39   ar
    24    39    40   ar
    25    40    41   ar
    26    41    42    1
    27    41    43   ar
    28    43    44   ar
    29    25    26    1
    30    26    27   am
    31    27    28    2
    32    27    30    1
    33    30    31    1
    34    31    32    1
    35    32    33   ar
    36    33    34   ar
    37    34    35   ar
    38    35    36   ar
    39    13    14   ar
    40    14    15   ar
    41    15    16   ar
    42    16     8   ar
    43    15    10   ar
    44    44    38   ar
    45    36    32   ar
    46     2     3    1
    47    26    29    1
@<TRIPOS>MOLECULE
*****
 44 47 0 0 0
SMALL
GASTEIGER

@<TRIPOS>ATOM
      1 C          62.7855   89.7929   12.8835 C.3     1  UNL1        0.1484
      2 O          61.5718   90.0055   13.7390 O.3     1  UNL1       -0.3810
      3 H          60.8070   89.5727   13.3284 H       1  UNL1        0.2105
      4 C          62.6775   89.0067   11.6106 C.3     1  UNL1        0.1245
      5 C          60.9189   87.8542   10.0845 C.2     1  UNL1        0.2492
      6 O          59.6659   87.9255    9.2629 O.2     1  UNL1       -0.2699
      7 N          61.4245   89.0781   10.7890 N.am    1  UNL1       -0.2735
      8 C          63.3631   82.3679   12.2486 C.ar    1  UNL1        0.2924
      9 N          63.7871   82.6672   10.8413 N.ar    1  UNL1       -0.1946
     10 C          63.1611   83.9684   10.4352 C.ar    1  UNL1        0.1202
     11 C          63.2246   84.7586    9.1619 C.ar    1  UNL1        0.0225
     12 C          62.4773   86.0539    9.0450 C.ar    1  UNL1        0.0063
     13 C          61.6663   86.5589   10.2014 C.ar    1  UNL1        0.0567
     14 C          61.6027   85.7686   11.4748 C.ar    1  UNL1        0.0437
     15 C          62.3501   84.4734   11.5917 C.ar    1  UNL1        0.1662
     16 O          62.4750   83.4842   12.7124 O.2     1  UNL1       -0.4237
     17 N          63.7579   81.1638   13.0513 N.pl3   1  UNL1       -0.2619
     18 C          65.1408   81.0646   13.6238 C.3     1  UNL1        0.1166
     19 C          61.4192   80.3683   13.8560 C.3     1  UNL1        0.0233
     20 C          62.7699   80.0590   13.2814 C.3     1  UNL1        0.0952
     21 C          60.6771   90.3734   10.6721 C.3     1  UNL1        0.0937
     22 C          59.4219   90.5892   11.4646 C.3     1  UNL1        0.0199
     23 C          58.7566   91.9335   11.4643 C.3     1  UNL1        0.0018
     24 C          58.8321   89.4606   12.2574 C.3     1  UNL1        0.0018
     25 C          64.1071   90.3665   13.3009 C.3     1  UNL1        0.1075
     26 N          64.6987   91.5171   12.5417 N.am    1  UNL1       -0.2695
     27 C          65.3972   92.6215   13.2781 C.2     1  UNL1        0.4020
     28 O          65.5042   92.5755   14.7735 O.2     1  UNL1       -0.2264
     29 H          64.6285   91.5473   11.5602 H       1  UNL1        0.1528
     30 O          65.9888   93.7721   12.5189 O.3     1  UNL1       -0.4291
     31 C          65.7309   93.9120   11.0479 C.3     1  UNL1        0.2447
     32 C          66.7962   93.5371   10.0607 C.ar    1  UNL1        0.0714
     33 C          67.1519   94.2960    8.8166 C.ar    1  UNL1        0.1053
     34 N          68.2684   93.5654    8.1313 N.ar    1  UNL1       -0.2350
     35 C          68.6028   92.3550    8.9518 C.ar    1  UNL1        0.1343
     36 S          67.6929   92.3375   10.1443 S.2     1  UNL1       -0.0652
     37 C          64.8372   89.7896   14.4774 C.3     1  UNL1        0.0485
     38 C          64.2400   88.6468   15.2438 C.ar    1  UNL1       -0.0203
     39 C          63.3871   88.9156   16.4480 C.ar    1  UNL1       -0.0019
     40 C          62.7899   87.7728   17.2144 C.ar    1  UNL1        0.0293
     41 C          63.0457   86.3611   16.7766 C.ar    1  UNL1        0.1401
     42 F          62.4485   85.2183   17.5430 F       1  UNL1       -0.2042
     43 C          63.8986   86.0923   15.5724 C.ar    1  UNL1        0.0293
     44 C          64.4958   87.2351   14.8060 C.ar    1  UNL1       -0.0019
@<TRIPOS>BOND
     1    19    20    1
     2    20    17    1
     3    17    18    1
     4    17     8    1
     5     8     9   ar
     6     9    10   ar
     7    10    11   ar
     8    11    12   ar
     9    12    13   ar
    10    13     5    1
    11     5     6    2
    12     5     7   am
    13     7    21    1
    14    21    22    1
    15    22    23    1
    16    22    24    1
    17     7     4    1
    18     4     1    1
    19     1     2    1
    20     1    25    1
    21    25    37    1
    22    37    38    1
    23    38    39   ar
    24    39    40   ar
    25    40    41   ar
    26    41    42    1
    27    41    43   ar
    28    43    44   ar
    29    25    26    1
    30    26    27   am
    31    27    28    2
    32    27    30    1
    33    30    31    1
    34    31    32    1
    35    32    33   ar
    36    33    34   ar
    37    34    35   ar
    38    35    36   ar
    39    13    14   ar
    40    14    15   ar
    41    15    16   ar
    42    16     8   ar
    43    15    10   ar
    44    44    38   ar
    45    36    32   ar
    46     2     3    1
    47    26    29    1
@<TRIPOS>MOLECULE
*****
 44 47 0 0 0
SMALL
GASTEIGER

@<TRIPOS>ATOM
      1 C          61.1419   90.3821   10.4642 C.3     1  UNL1        0.1484
      2 O          60.1734   90.7385   11.5528 O.3     1  UNL1       -0.3810
      3 H          59.2686   90.7027   11.2050 H       1  UNL1        0.2105
      4 C          60.6375   90.0440    9.0926 C.3     1  UNL1        0.1245
      5 C          59.2524   88.4756    7.5526 C.2     1  UNL1        0.2492
      6 O          58.5980   87.1497    7.2999 O.2     1  UNL1       -0.2699
      7 N          59.9831   88.7181    8.8399 N.am    1  UNL1       -0.2735
      8 C          60.7202   92.7724    3.0648 C.ar    1  UNL1        0.2924
      9 N          59.2562   92.7635    3.3910 N.ar    1  UNL1       -0.1946
     10 C          59.0232   91.7257    4.4486 C.ar    1  UNL1        0.1202
     11 C          57.7795   91.2750    5.1558 C.ar    1  UNL1        0.0225
     12 C          57.8559   90.1916    6.1904 C.ar    1  UNL1        0.0063
     13 C          59.1760   89.5590    6.5179 C.ar    1  UNL1        0.0567
     14 C          60.4197   90.0097    5.8107 C.ar    1  UNL1        0.0437
     15 C          60.3432   91.0931    4.7761 C.ar    1  UNL1        0.1662
     16 O          61.3921   91.7400    3.9208 O.2     1  UNL1       -0.4237
     17 N          61.3941   93.6581    2.0591 N.pl3   1  UNL1       -0.2619
     18 C          60.8991   95.0571    1.8409 C.3     1  UNL1        0.1166
     19 C          63.9615   93.4599    1.7134 C.3     1  UNL1        0.0233
     20 C          62.5631   93.1448    1.2717 C.3     1  UNL1        0.0952
     21 C          60.0595   87.6347    9.8746 C.3     1  UNL1        0.0937
     22 C          61.1544   86.6115    9.8096 C.3     1  UNL1        0.0199
     23 C          61.5370   85.8434   11.0399 C.3     1  UNL1        0.0018
     24 C          61.8667   86.3564    8.5143 C.3     1  UNL1        0.0018
     25 C          62.6149   90.3639   10.7472 C.3     1  UNL1        0.1075
     26 N          63.2563   89.1276   11.3043 N.am    1  UNL1       -0.2695
     27 C          63.0859   88.7825   12.7540 C.2     1  UNL1        0.4020
     28 O          62.2741   89.6736   13.6468 O.2     1  UNL1       -0.2264
     29 H          63.7891   88.5428   10.7184 H       1  UNL1        0.1528
     30 O          63.7273   87.5462   13.3111 O.3     1  UNL1       -0.4291
     31 C          64.3550   87.5756   14.6732 C.3     1  UNL1        0.2447
     32 C          63.6384   86.9678   15.8424 C.ar    1  UNL1        0.0714
     33 C          63.3414   85.5100   16.0337 C.ar    1  UNL1        0.1053
     34 N          62.6124   85.3523   17.3351 N.ar    1  UNL1       -0.2350
     35 C          62.4589   86.7127   17.9483 C.ar    1  UNL1        0.1343
     36 S          63.0930   87.7111   17.0256 S.2     1  UNL1       -0.0652
     37 C          63.4464   91.5818   10.4731 C.3     1  UNL1        0.0485
     38 C          64.6265   91.8958   11.3442 C.ar    1  UNL1       -0.0203
     39 C          64.5214   91.7442   12.8327 C.ar    1  UNL1       -0.0019
     40 C          65.7015   92.0582   13.7038 C.ar    1  UNL1        0.0293
     41 C          66.9867   92.5239   13.0863 C.ar    1  UNL1        0.1401
     42 F          68.1668   92.8379   13.9573 F       1  UNL1       -0.2042
     43 C          67.0918   92.6755   11.5977 C.ar    1  UNL1        0.0293
     44 C          65.9117   92.3615   10.7266 C.ar    1  UNL1       -0.0019
@<TRIPOS>BOND
     1    19    20    1
     2    20    17    1
     3    17    18    1
     4    17     8    1
     5     8     9   ar
     6     9    10   ar
     7    10    11   ar
     8    11    12   ar
     9    12    13   ar
    10    13     5    1
    11     5     6    2
    12     5     7   am
    13     7    21    1
    14    21    22    1
    15    22    23    1
    16    22    24    1
    17     7     4    1
    18     4     1    1
    19     1     2    1
    20     1    25    1
    21    25    37    1
    22    37    38    1
    23    38    39   ar
    24    39    40   ar
    25    40    41   ar
    26    41    42    1
    27    41    43   ar
    28    43    44   ar
    29    25    26    1
    30    26    27   am
    31    27    28    2
    32    27    30    1
    33    30    31    1
    34    31    32    1
    35    32    33   ar
    36    33    34   ar
    37    34    35   ar
    38    35    36   ar
    39    13    14   ar
    40    14    15   ar
    41    15    16   ar
    42    16     8   ar
    43    15    10   ar
    44    44    38   ar
    45    36    32   ar
    46     2     3    1
    47    26    29    1
@<TRIPOS>MOLECULE
*****
 44 47 0 0 0
SMALL
GASTEIGER

@<TRIPOS>ATOM
      1 C          62.3591   86.3318   11.3471 C.3     1  UNL1        0.1484
      2 O          61.2855   85.3362   11.0214 O.3     1  UNL1       -0.3810
      3 H          60.7272   85.6843   10.3086 H       1  UNL1        0.2105
      4 C          62.4317   87.6289   10.5972 C.3     1  UNL1        0.1245
      5 C          61.1663   89.8973   10.5422 C.2     1  UNL1        0.2492
      6 O          59.9152   90.6807   10.2759 O.2     1  UNL1       -0.2699
      7 N          61.1806   88.4123   10.3309 N.am    1  UNL1       -0.2735
      8 C          65.9101   92.1620   14.1650 C.ar    1  UNL1        0.2924
      9 N          66.0338   92.5846   12.7310 N.ar    1  UNL1       -0.1946
     10 C          64.8768   92.0020   11.9746 C.ar    1  UNL1        0.1202
     11 C          64.4788   92.0831   10.5307 C.ar    1  UNL1        0.0225
     12 C          63.2419   91.3815   10.0533 C.ar    1  UNL1        0.0063
     13 C          62.4032   90.5989   11.0197 C.ar    1  UNL1        0.0567
     14 C          62.8013   90.5178   12.4636 C.ar    1  UNL1        0.0437
     15 C          64.0381   91.2194   12.9411 C.ar    1  UNL1        0.1662
     16 O          64.6767   91.3183   14.2948 O.2     1  UNL1       -0.4237
     17 N          66.8540   92.5203   15.2743 N.pl3   1  UNL1       -0.2619
     18 C          66.3416   92.6702   16.6760 C.3     1  UNL1        0.1166
     19 C          69.1039   93.7136   15.7882 C.3     1  UNL1        0.0233
     20 C          68.3104   92.7286   14.9819 C.3     1  UNL1        0.0952
     21 C          59.9437   87.7107    9.8534 C.3     1  UNL1        0.0937
     22 C          59.7531   87.4389    8.3906 C.3     1  UNL1        0.0199
     23 C          59.2555   88.5257    7.4844 C.3     1  UNL1        0.0018
     24 C          60.0602   86.0802    7.8340 C.3     1  UNL1        0.0018
     25 C          63.3602   86.0303   12.4227 C.3     1  UNL1        0.1075
     26 N          63.8578   84.6280   12.6125 N.am    1  UNL1       -0.2695
     27 C          64.1031   83.7514   11.4202 C.2     1  UNL1        0.4020
     28 O          63.8508   84.2772   10.0382 O.2     1  UNL1       -0.2264
     29 H          64.0234   84.2829   13.5195 H       1  UNL1        0.1528
     30 O          64.6007   82.3491   11.6100 O.3     1  UNL1       -0.4291
     31 C          64.4519   81.6742   12.9412 C.3     1  UNL1        0.2447
     32 C          63.0932   81.2634   13.4261 C.ar    1  UNL1        0.0714
     33 C          62.1599   82.1017   14.2486 C.ar    1  UNL1        0.1053
     34 N          60.9191   81.2987   14.5045 N.ar    1  UNL1       -0.2350
     35 C          61.0853   79.9641   13.8401 C.ar    1  UNL1        0.1343
     36 S          62.4291   79.9424   13.1736 S.2     1  UNL1       -0.0652
     37 C          63.8637   87.1311   13.3086 C.3     1  UNL1        0.0485
     38 C          63.5730   87.1020   14.7799 C.ar    1  UNL1       -0.0203
     39 C          63.4176   85.7888   15.4879 C.ar    1  UNL1       -0.0019
     40 C          63.1270   85.7597   16.9591 C.ar    1  UNL1        0.0293
     41 C          62.9917   87.0438   17.7224 C.ar    1  UNL1        0.1401
     42 F          62.7011   87.0147   19.1937 F       1  UNL1       -0.2042
     43 C          63.1471   88.3570   17.0145 C.ar    1  UNL1        0.0293
     44 C          63.4377   88.3861   15.5432 C.ar    1  UNL1       -0.0019
@<TRIPOS>BOND
     1    19    20    1
     2    20    17    1
     3    17    18    1
     4    17     8    1
     5     8     9   ar
     6     9    10   ar
     7    10    11   ar
     8    11    12   ar
     9    12    13   ar
    10    13     5    1
    11     5     6    2
    12     5     7   am
    13     7    21    1
    14    21    22    1
    15    22    23    1
    16    22    24    1
    17     7     4    1
    18     4     1    1
    19     1     2    1
    20     1    25    1
    21    25    37    1
    22    37    38    1
    23    38    39   ar
    24    39    40   ar
    25    40    41   ar
    26    41    42    1
    27    41    43   ar
    28    43    44   ar
    29    25    26    1
    30    26    27   am
    31    27    28    2
    32    27    30    1
    33    30    31    1
    34    31    32    1
    35    32    33   ar
    36    33    34   ar
    37    34    35   ar
    38    35    36   ar
    39    13    14   ar
    40    14    15   ar
    41    15    16   ar
    42    16     8   ar
    43    15    10   ar
    44    44    38   ar
    45    36    32   ar
    46     2     3    1
    47    26    29    1
@<TRIPOS>MOLECULE
*****
 44 47 0 0 0
SMALL
GASTEIGER

@<TRIPOS>ATOM
      1 C          61.1763   89.9989    9.8274 C.3     1  UNL1        0.1484
      2 O          59.9265   90.3080   10.5970 O.3     1  UNL1       -0.3810
      3 H          59.1517   90.1194   10.0446 H       1  UNL1        0.2105
      4 C          61.0834   89.4817    8.4224 C.3     1  UNL1        0.1245
      5 C          59.6208   87.3564    8.1162 C.2     1  UNL1        0.2492
      6 O          58.3556   86.7080    7.6378 O.2     1  UNL1       -0.2699
      7 N          59.8182   88.8333    7.9440 N.am    1  UNL1       -0.2735
      8 C          63.2540   84.3071   12.3892 C.ar    1  UNL1        0.2924
      9 N          63.7430   84.1178   10.9838 N.ar    1  UNL1       -0.1946
     10 C          62.8242   84.8706   10.0679 C.ar    1  UNL1        0.1202
     11 C          62.8134   85.0446    8.5781 C.ar    1  UNL1        0.0225
     12 C          61.7456   85.8732    7.9275 C.ar    1  UNL1        0.0063
     13 C          60.6886   86.5278    8.7668 C.ar    1  UNL1        0.0567
     14 C          60.6994   86.3538   10.2566 C.ar    1  UNL1        0.0437
     15 C          61.7672   85.5252   10.9071 C.ar    1  UNL1        0.1662
     16 O          62.0329   85.1769   12.3418 O.2     1  UNL1       -0.4237
     17 N          63.8767   83.7283   13.6250 N.pl3   1  UNL1       -0.2619
     18 C          65.2221   84.2087   14.0824 C.3     1  UNL1        0.1166
     19 C          62.3869   81.6006   13.6823 C.3     1  UNL1        0.0233
     20 C          63.1542   82.6690   14.4033 C.3     1  UNL1        0.0952
     21 C          58.7504   89.6619    7.2934 C.3     1  UNL1        0.0937
     22 C          59.0189   90.3341    5.9795 C.3     1  UNL1        0.0199
     23 C          57.9024   91.0111    5.2414 C.3     1  UNL1        0.0018
     24 C          60.4041   90.3292    5.4039 C.3     1  UNL1        0.0018
     25 C          62.5191   90.2068   10.4628 C.3     1  UNL1        0.1075
     26 N          63.2064   89.0666   11.1540 N.am    1  UNL1       -0.2695
     27 C          62.9470   88.8049   12.6080 C.2     1  UNL1        0.4020
     28 O          62.0002   89.6834   13.3709 O.2     1  UNL1       -0.2264
     29 H          63.8278   88.4901   10.6533 H       1  UNL1        0.1528
     30 O          63.6343   87.6648   13.2992 O.3     1  UNL1       -0.4291
     31 C          64.3433   87.8946   14.6009 C.3     1  UNL1        0.2447
     32 C          63.6918   87.4926   15.8908 C.ar    1  UNL1        0.0714
     33 C          63.1754   88.4255   16.9460 C.ar    1  UNL1        0.1053
     34 N          62.6068   87.5967   18.0594 N.ar    1  UNL1       -0.2350
     35 C          62.7717   86.1516   17.6925 C.ar    1  UNL1        0.1343
     36 S          63.4423   86.0873   16.3522 S.2     1  UNL1       -0.0652
     37 C          63.1745   91.5548   10.4070 C.3     1  UNL1        0.0485
     38 C          64.3953   91.8300   11.2340 C.ar    1  UNL1       -0.0203
     39 C          64.3588   91.6188   12.7185 C.ar    1  UNL1       -0.0019
     40 C          65.5797   91.8940   13.5455 C.ar    1  UNL1        0.0293
     41 C          66.8370   92.3804   12.8879 C.ar    1  UNL1        0.1401
     42 F          68.0578   92.6555   13.7148 F       1  UNL1       -0.2042
     43 C          66.8735   92.5915   11.4033 C.ar    1  UNL1        0.0293
     44 C          65.6527   92.3164   10.5763 C.ar    1  UNL1       -0.0019
@<TRIPOS>BOND
     1    19    20    1
     2    20    17    1
     3    17    18    1
     4    17     8    1
     5     8     9   ar
     6     9    10   ar
     7    10    11   ar
     8    11    12   ar
     9    12    13   ar
    10    13     5    1
    11     5     6    2
    12     5     7   am
    13     7    21    1
    14    21    22    1
    15    22    23    1
    16    22    24    1
    17     7     4    1
    18     4     1    1
    19     1     2    1
    20     1    25    1
    21    25    37    1
    22    37    38    1
    23    38    39   ar
    24    39    40   ar
    25    40    41   ar
    26    41    42    1
    27    41    43   ar
    28    43    44   ar
    29    25    26    1
    30    26    27   am
    31    27    28    2
    32    27    30    1
    33    30    31    1
    34    31    32    1
    35    32    33   ar
    36    33    34   ar
    37    34    35   ar
    38    35    36   ar
    39    13    14   ar
    40    14    15   ar
    41    15    16   ar
    42    16     8   ar
    43    15    10   ar
    44    44    38   ar
    45    36    32   ar
    46     2     3    1
    47    26    29    1
@<TRIPOS>MOLECULE
*****
 44 47 0 0 0
SMALL
GASTEIGER

@<TRIPOS>ATOM
      1 C          63.1824   90.3592   11.5265 C.3     1  UNL1        0.1484
      2 O          63.2215   91.3722   10.4210 O.3     1  UNL1       -0.3810
      3 H          62.6144   91.1029    9.7140 H       1  UNL1        0.2105
      4 C          62.2886   89.1599   11.4136 C.3     1  UNL1        0.1245
      5 C          60.6676   88.0155    9.7365 C.2     1  UNL1        0.2492
      6 O          59.4459   88.0698    8.8679 O.2     1  UNL1       -0.2699
      7 N          61.0669   89.2142   10.5450 N.am    1  UNL1       -0.2735
      8 C          63.3774   82.5534   11.6283 C.ar    1  UNL1        0.2924
      9 N          63.8276   82.9711   10.2598 N.ar    1  UNL1       -0.1946
     10 C          63.1351   84.2567    9.9163 C.ar    1  UNL1        0.1202
     11 C          63.1907   85.1328    8.7001 C.ar    1  UNL1        0.0225
     12 C          62.3683   86.3857    8.6402 C.ar    1  UNL1        0.0063
     13 C          61.4902   86.7625    9.7965 C.ar    1  UNL1        0.0567
     14 C          61.4345   85.8864   11.0127 C.ar    1  UNL1        0.0437
     15 C          62.2570   84.6334   11.0726 C.ar    1  UNL1        0.1662
     16 O          62.4068   83.5808   12.1307 O.2     1  UNL1       -0.4237
     17 N          63.8202   81.3241   12.3651 N.pl3   1  UNL1       -0.2619
     18 C          65.2419   81.1973   12.8261 C.3     1  UNL1        0.1166
     19 C          61.7471   80.4244   13.6468 C.3     1  UNL1        0.0233
     20 C          62.8412   80.2216   12.6409 C.3     1  UNL1        0.0952
     21 C          60.2444   90.4672   10.4850 C.3     1  UNL1        0.0937
     22 C          59.1771   90.7135   11.5098 C.3     1  UNL1        0.0199
     23 C          58.7764   89.6185   12.4535 C.3     1  UNL1        0.0018
     24 C          58.5104   92.0548   11.5909 C.3     1  UNL1        0.0018
     25 C          64.0372   90.5455   12.7450 C.3     1  UNL1        0.1075
     26 N          64.3750   89.3684   13.6113 N.am    1  UNL1       -0.2695
     27 C          63.5557   89.0770   14.8335 C.2     1  UNL1        0.4020
     28 O          62.3986   89.9627   15.1895 O.2     1  UNL1       -0.2264
     29 H          65.1344   88.7871   13.3777 H       1  UNL1        0.1528
     30 O          63.8935   87.8999   15.6998 O.3     1  UNL1       -0.4291
     31 C          64.5815   86.7058   15.1076 C.3     1  UNL1        0.2447
     32 C          63.9763   85.3414   15.2559 C.ar    1  UNL1        0.0714
     33 C          64.6650   84.0369   14.9837 C.ar    1  UNL1        0.1053
     34 N          63.6904   82.9312   15.2620 N.ar    1  UNL1       -0.2350
     35 C          62.3992   83.5522   15.7062 C.ar    1  UNL1        0.1343
     36 S          62.5759   85.0419   15.7024 S.2     1  UNL1       -0.0652
     37 C          64.5541   91.9088   13.0972 C.3     1  UNL1        0.0485
     38 C          65.7622   92.0491   13.9752 C.ar    1  UNL1       -0.0203
     39 C          67.1352   91.8865   13.3934 C.ar    1  UNL1       -0.0019
     40 C          68.3432   92.0268   14.2715 C.ar    1  UNL1        0.0293
     41 C          68.1784   92.3296   15.7312 C.ar    1  UNL1        0.1401
     42 F          69.3864   92.4699   16.6092 F       1  UNL1       -0.2042
     43 C          66.8054   92.4922   16.3130 C.ar    1  UNL1        0.0293
     44 C          65.5973   92.3520   15.4350 C.ar    1  UNL1       -0.0019
@<TRIPOS>BOND
     1    19    20    1
     2    20    17    1
     3    17    18    1
     4    17     8    1
     5     8     9   ar
     6     9    10   ar
     7    10    11   ar
     8    11    12   ar
     9    12    13   ar
    10    13     5    1
    11     5     6    2
    12     5     7   am
    13     7    21    1
    14    21    22    1
    15    22    23    1
    16    22    24    1
    17     7     4    1
    18     4     1    1
    19     1     2    1
    20     1    25    1
    21    25    37    1
    22    37    38    1
    23    38    39   ar
    24    39    40   ar
    25    40    41   ar
    26    41    42    1
    27    41    43   ar
    28    43    44   ar
    29    25    26    1
    30    26    27   am
    31    27    28    2
    32    27    30    1
    33    30    31    1
    34    31    32    1
    35    32    33   ar
    36    33    34   ar
    37    34    35   ar
    38    35    36   ar
    39    13    14   ar
    40    14    15   ar
    41    15    16   ar
    42    16     8   ar
    43    15    10   ar
    44    44    38   ar
    45    36    32   ar
    46     2     3    1
    47    26    29    1
@<TRIPOS>MOLECULE
*****
 44 47 0 0 0
SMALL
GASTEIGER

@<TRIPOS>ATOM
      1 C          62.9378   85.4038   11.1167 C.3     1  UNL1        0.1484
      2 O          63.1104   84.7638    9.7711 O.3     1  UNL1       -0.3810
      3 H          62.9455   85.4210    9.0770 H       1  UNL1        0.2105
      4 C          62.5646   86.8533   11.2155 C.3     1  UNL1        0.1245
      5 C          61.1964   88.8542   10.2805 C.2     1  UNL1        0.2492
      6 O          60.0121   89.3770    9.5227 O.2     1  UNL1       -0.2699
      7 N          61.3803   87.3761   10.4578 N.am    1  UNL1       -0.2735
      8 C          65.5277   93.4855   11.0205 C.ar    1  UNL1        0.2924
      9 N          65.2183   92.7807   12.3080 N.ar    1  UNL1       -0.1946
     10 C          64.1971   91.7199   12.0221 C.ar    1  UNL1        0.1202
     11 C          63.5187   90.7156   12.9058 C.ar    1  UNL1        0.0225
     12 C          62.5185   89.7604   12.3253 C.ar    1  UNL1        0.0063
     13 C          62.1967   89.8095   10.8610 C.ar    1  UNL1        0.0567
     14 C          62.8751   90.8138    9.9773 C.ar    1  UNL1        0.0437
     15 C          63.8753   91.7690   10.5578 C.ar    1  UNL1        0.1662
     16 O          64.6977   92.8602    9.9389 O.2     1  UNL1       -0.4237
     17 N          66.4969   94.6168   10.8455 N.pl3   1  UNL1       -0.2619
     18 C          66.4404   95.8017   11.7636 C.3     1  UNL1        0.1166
     19 C          68.1740   93.2595    9.3982 C.3     1  UNL1        0.0233
     20 C          67.5226   94.5634    9.7523 C.3     1  UNL1        0.0952
     21 C          60.3801   86.4208    9.8772 C.3     1  UNL1        0.0937
     22 C          60.1993   86.3358    8.3906 C.3     1  UNL1        0.0199
     23 C          61.2688   85.7184    7.5391 C.3     1  UNL1        0.0018
     24 C          58.9490   86.8683    7.7554 C.3     1  UNL1        0.0018
     25 C          63.1385   84.5943   12.3635 C.3     1  UNL1        0.1075
     26 N          62.3866   84.9436   13.6136 N.am    1  UNL1       -0.2695
     27 C          62.9370   84.5540   14.9535 C.2     1  UNL1        0.4020
     28 O          64.2392   83.8150   15.0433 O.2     1  UNL1       -0.2264
     29 H          61.5319   85.4286   13.5547 H       1  UNL1        0.1528
     30 O          62.1851   84.9033   16.2036 O.3     1  UNL1       -0.4291
     31 C          62.7149   85.9600   17.1269 C.3     1  UNL1        0.2447
     32 C          63.1986   87.2669   16.5720 C.ar    1  UNL1        0.0714
     33 C          64.1169   87.4408   15.3987 C.ar    1  UNL1        0.1053
     34 N          64.3348   88.9108   15.1945 N.ar    1  UNL1       -0.2350
     35 C          63.5513   89.6454   16.2416 C.ar    1  UNL1        0.1343
     36 S          62.8490   88.6294   17.0930 S.2     1  UNL1       -0.0652
     37 C          64.0910   83.4356   12.3603 C.3     1  UNL1        0.0485
     38 C          63.6259   82.0836   11.9065 C.ar    1  UNL1       -0.0203
     39 C          63.0940   81.0992   12.9054 C.ar    1  UNL1       -0.0019
     40 C          62.6289   79.7473   12.4516 C.ar    1  UNL1        0.0293
     41 C          62.6957   79.3797   10.9989 C.ar    1  UNL1        0.1401
     42 F          62.2306   78.0278   10.5451 F       1  UNL1       -0.2042
     43 C          63.2276   80.3642   10.0000 C.ar    1  UNL1        0.0293
     44 C          63.6927   81.7161   10.4538 C.ar    1  UNL1       -0.0019
@<TRIPOS>BOND
     1    19    20    1
     2    20    17    1
     3    17    18    1
     4    17     8    1
     5     8     9   ar
     6     9    10   ar
     7    10    11   ar
     8    11    12   ar
     9    12    13   ar
    10    13     5    1
    11     5     6    2
    12     5     7   am
    13     7    21    1
    14    21    22    1
    15    22    23    1
    16    22    24    1
    17     7     4    1
    18     4     1    1
    19     1     2    1
    20     1    25    1
    21    25    37    1
    22    37    38    1
    23    38    39   ar
    24    39    40   ar
    25    40    41   ar
    26    41    42    1
    27    41    43   ar
    28    43    44   ar
    29    25    26    1
    30    26    27   am
    31    27    28    2
    32    27    30    1
    33    30    31    1
    34    31    32    1
    35    32    33   ar
    36    33    34   ar
    37    34    35   ar
    38    35    36   ar
    39    13    14   ar
    40    14    15   ar
    41    15    16   ar
    42    16     8   ar
    43    15    10   ar
    44    44    38   ar
    45    36    32   ar
    46     2     3    1
    47    26    29    1
@<TRIPOS>MOLECULE
*****
 44 47 0 0 0
SMALL
GASTEIGER

@<TRIPOS>ATOM
      1 C          64.6333   86.3538   14.3623 C.3     1  UNL1        0.1484
      2 O          65.9456   86.0788   15.0345 O.3     1  UNL1       -0.3810
      3 H          66.3530   86.9170   15.3035 H       1  UNL1        0.2105
      4 C          64.1539   87.7662   14.2024 C.3     1  UNL1        0.1245
      5 C          63.7372   89.8891   15.6410 C.2     1  UNL1        0.2492
      6 O          63.0285   90.5731   16.7723 O.2     1  UNL1       -0.2699
      7 N          63.4452   88.4503   15.3337 N.am    1  UNL1       -0.2735
      8 C          66.5477   93.3233   11.0514 C.ar    1  UNL1        0.2924
      9 N          67.4978   92.9526   12.1513 N.ar    1  UNL1       -0.1946
     10 C          66.7394   92.1534   13.1692 C.ar    1  UNL1        0.1202
     11 C          67.1575   91.5220   14.4640 C.ar    1  UNL1        0.0225
     12 C          66.1568   90.7672   15.2879 C.ar    1  UNL1        0.0063
     13 C          64.7380   90.6439   14.8170 C.ar    1  UNL1        0.0567
     14 C          64.3199   91.2753   13.5222 C.ar    1  UNL1        0.0437
     15 C          65.3206   92.0300   12.6983 C.ar    1  UNL1        0.1662
     16 O          65.2021   92.7531   11.3895 O.2     1  UNL1       -0.4237
     17 N          66.8841   94.1236    9.8281 N.pl3   1  UNL1       -0.2619
     18 C          66.1885   95.4273    9.5701 C.3     1  UNL1        0.1166
     19 C          68.5469   92.2757    9.0731 C.3     1  UNL1        0.0233
     20 C          67.9160   93.6202    8.8629 C.3     1  UNL1        0.0952
     21 C          62.4444   87.6954   16.1576 C.3     1  UNL1        0.0937
     22 C          62.9035   86.8628   17.3178 C.3     1  UNL1        0.0199
     23 C          62.8115   87.4053   18.7132 C.3     1  UNL1        0.0018
     24 C          63.4546   85.4876   17.0825 C.3     1  UNL1        0.0018
     25 C          63.8002   85.2165   13.8499 C.3     1  UNL1        0.1075
     26 N          62.4187   85.4753   13.3259 N.am    1  UNL1       -0.2695
     27 C          62.2305   85.9913   11.9301 C.2     1  UNL1        0.4020
     28 O          63.4237   86.2485   11.0583 O.2     1  UNL1       -0.2264
     29 H          61.6355   85.3066   13.8981 H       1  UNL1        0.1528
     30 O          60.8490   86.2502   11.4060 O.3     1  UNL1       -0.4291
     31 C          60.4528   87.6351   10.9877 C.3     1  UNL1        0.2447
     32 C          60.0555   87.9045    9.5667 C.ar    1  UNL1        0.0714
     33 C          60.1304   89.2288    8.8661 C.ar    1  UNL1        0.1053
     34 N          59.6348   89.0397    7.4631 N.ar    1  UNL1       -0.2350
     35 C          59.2536   87.5985    7.2963 C.ar    1  UNL1        0.1343
     36 S          59.5137   86.8969    8.5965 S.2     1  UNL1       -0.0652
     37 C          64.3485   83.8204   13.8616 C.3     1  UNL1        0.0485
     38 C          63.9587   82.8524   12.7841 C.ar    1  UNL1       -0.0203
     39 C          64.3801   83.0993   11.3658 C.ar    1  UNL1       -0.0019
     40 C          63.9903   82.1314   10.2883 C.ar    1  UNL1        0.0293
     41 C          63.1791   80.9166   10.6289 C.ar    1  UNL1        0.1401
     42 F          62.7892   79.9486    9.5514 F       1  UNL1       -0.2042
     43 C          62.7577   80.6697   12.0472 C.ar    1  UNL1        0.0293
     44 C          63.1475   81.6376   13.1247 C.ar    1  UNL1       -0.0019
@<TRIPOS>BOND
     1    19    20    1
     2    20    17    1
     3    17    18    1
     4    17     8    1
     5     8     9   ar
     6     9    10   ar
     7    10    11   ar
     8    11    12   ar
     9    12    13   ar
    10    13     5    1
    11     5     6    2
    12     5     7   am
    13     7    21    1
    14    21    22    1
    15    22    23    1
    16    22    24    1
    17     7     4    1
    18     4     1    1
    19     1     2    1
    20     1    25    1
    21    25    37    1
    22    37    38    1
    23    38    39   ar
    24    39    40   ar
    25    40    41   ar
    26    41    42    1
    27    41    43   ar
    28    43    44   ar
    29    25    26    1
    30    26    27   am
    31    27    28    2
    32    27    30    1
    33    30    31    1
    34    31    32    1
    35    32    33   ar
    36    33    34   ar
    37    34    35   ar
    38    35    36   ar
    39    13    14   ar
    40    14    15   ar
    41    15    16   ar
    42    16     8   ar
    43    15    10   ar
    44    44    38   ar
    45    36    32   ar
    46     2     3    1
    47    26    29    1
@<TRIPOS>MOLECULE
*****
 44 47 0 0 0
SMALL
GASTEIGER

@<TRIPOS>ATOM
      1 C          62.6975   86.3023   12.4074 C.3     1  UNL1        0.1484
      2 O          61.6431   85.2367   12.4598 O.3     1  UNL1       -0.3810
      3 H          61.1008   85.2787   11.6567 H       1  UNL1        0.2105
      4 C          62.7772   87.2210   11.2243 C.3     1  UNL1        0.1245
      5 C          61.2832   89.1774   10.3935 C.2     1  UNL1        0.2492
      6 O          60.0261   89.6628    9.7348 O.2     1  UNL1       -0.2699
      7 N          61.5200   87.7063   10.5655 N.am    1  UNL1       -0.2735
      8 C          65.8027   93.6776   10.6772 C.ar    1  UNL1        0.2924
      9 N          65.4035   93.1815   12.0353 N.ar    1  UNL1       -0.1946
     10 C          64.3443   92.1350   11.8538 C.ar    1  UNL1        0.1202
     11 C          63.5795   91.2999   12.8374 C.ar    1  UNL1        0.0225
     12 C          62.5592   90.3140   12.3506 C.ar    1  UNL1        0.0063
     13 C          62.3036   90.1633   10.8802 C.ar    1  UNL1        0.0567
     14 C          63.0685   90.9985    9.8966 C.ar    1  UNL1        0.0437
     15 C          64.0888   91.9843   10.3834 C.ar    1  UNL1        0.1662
     16 O          64.9901   92.9377    9.6562 O.2     1  UNL1       -0.4237
     17 N          66.8334   94.7290   10.3903 N.pl3   1  UNL1       -0.2619
     18 C          66.6941   96.0982   10.9866 C.3     1  UNL1        0.1166
     19 C          68.3767   92.9826    9.2420 C.3     1  UNL1        0.0233
     20 C          68.0033   94.4110    9.5071 C.3     1  UNL1        0.0952
     21 C          60.4996   86.7204   10.0788 C.3     1  UNL1        0.0937
     22 C          60.4211   86.3809    8.6198 C.3     1  UNL1        0.0199
     23 C          61.5726   85.6951    7.9463 C.3     1  UNL1        0.0018
     24 C          59.1910   86.7273    7.8343 C.3     1  UNL1        0.0018
     25 C          63.6722   86.4492   13.5381 C.3     1  UNL1        0.1075
     26 N          64.2586   87.7935   13.8528 N.am    1  UNL1       -0.2695
     27 C          63.9926   88.4352   15.1823 C.2     1  UNL1        0.4020
     28 O          63.1403   87.7325   16.1971 O.2     1  UNL1       -0.2264
     29 H          64.8180   88.2547   13.1868 H       1  UNL1        0.1528
     30 O          64.5791   89.7795   15.4970 O.3     1  UNL1       -0.4291
     31 C          65.6001   90.3855   14.5805 C.3     1  UNL1        0.2447
     32 C          66.4707   91.5070   15.0646 C.ar    1  UNL1        0.0714
     33 C          66.1213   92.4937   16.1391 C.ar    1  UNL1        0.1053
     34 N          67.2782   93.4352   16.2978 N.ar    1  UNL1       -0.2350
     35 C          68.3426   93.0305   15.3214 C.ar    1  UNL1        0.1343
     36 S          67.8435   91.8388   14.5592 S.2     1  UNL1       -0.0652
     37 C          64.0604   85.2519   14.3539 C.3     1  UNL1        0.0485
     38 C          63.6739   83.8762   13.8979 C.ar    1  UNL1       -0.0203
     39 C          64.3486   83.2639   12.7064 C.ar    1  UNL1       -0.0019
     40 C          63.9620   81.8881   12.2504 C.ar    1  UNL1        0.0293
     41 C          62.9008   81.1247   12.9859 C.ar    1  UNL1        0.1401
     42 F          62.5143   79.7490   12.5299 F       1  UNL1       -0.2042
     43 C          62.2262   81.7371   14.1774 C.ar    1  UNL1        0.0293
     44 C          62.6127   83.1128   14.6334 C.ar    1  UNL1       -0.0019
@<TRIPOS>BOND
     1    19    20    1
     2    20    17    1
     3    17    18    1
     4    17     8    1
     5     8     9   ar
     6     9    10   ar
     7    10    11   ar
     8    11    12   ar
     9    12    13   ar
    10    13     5    1
    11     5     6    2
    12     5     7   am
    13     7    21    1
    14    21    22    1
    15    22    23    1
    16    22    24    1
    17     7     4    1
    18     4     1    1
    19     1     2    1
    20     1    25    1
    21    25    37    1
    22    37    38    1
    23    38    39   ar
    24    39    40   ar
    25    40    41   ar
    26    41    42    1
    27    41    43   ar
    28    43    44   ar
    29    25    26    1
    30    26    27   am
    31    27    28    2
    32    27    30    1
    33    30    31    1
    34    31    32    1
    35    32    33   ar
    36    33    34   ar
    37    34    35   ar
    38    35    36   ar
    39    13    14   ar
    40    14    15   ar
    41    15    16   ar
    42    16     8   ar
    43    15    10   ar
    44    44    38   ar
    45    36    32   ar
    46     2     3    1
    47    26    29    1
