@<TRIPOS>MOLECULE
*****
 26 29 0 0 0
SMALL
GASTEIGER

@<TRIPOS>ATOM
      1 C          67.1712   93.4886   14.1791 C.3     1  UNL1        0.1305
      2 N          66.1476   92.6527   13.4694 N.ar    1  UNL1       -0.3242
      3 C          65.3671   91.5194   14.0664 C.ar    1  UNL1        0.0738
      4 C          64.4619   90.9697   13.0041 C.ar    1  UNL1        0.0211
      5 C          64.6831   91.7632   11.7505 C.ar    1  UNL1        0.0165
      6 C          65.7249   92.8034   12.0380 C.ar    1  UNL1        0.0597
      7 C          66.2515   93.8164   11.0652 C.ar    1  UNL1        0.0158
      8 C          67.1039   93.3764    9.9121 C.ar    1  UNL1        0.0023
      9 C          67.6305   94.3894    8.9392 C.ar    1  UNL1        0.0114
     10 C          67.3047   95.8423    9.1194 C.ar    1  UNL1        0.0577
     11 CL         67.8313   96.8553    8.1465 Cl      1  UNL1       -0.0822
     12 C          66.4522   96.2824   10.2724 C.ar    1  UNL1        0.0114
     13 C          65.9256   95.2695   11.2453 C.ar    1  UNL1        0.0023
     14 C          63.5039   89.8271   13.1668 C.3     1  UNL1        0.1336
     15 C          62.5699   89.4666   12.0498 C.ar    1  UNL1        0.0026
     16 C          62.7461   88.1719   11.3131 C.ar    1  UNL1       -0.0013
     17 C          61.8121   87.8115   10.1961 C.ar    1  UNL1        0.0111
     18 C          60.7018   88.7457    9.8159 C.ar    1  UNL1        0.0577
     19 CL         59.7678   88.3852    8.6988 Cl      1  UNL1       -0.0822
     20 C          60.5256   90.0403   10.5525 C.ar    1  UNL1        0.0111
     21 C          61.4596   90.4008   11.6695 C.ar    1  UNL1       -0.0013
     22 N          63.4799   89.0449   14.4465 N.ar    1  UNL1       -0.3019
     23 C          62.9403   89.5228   15.7620 C.ar    1  UNL1        0.0985
     24 C          63.1181   88.4208   16.7639 C.ar    1  UNL1        0.1193
     25 N          63.7676   87.2617   16.0676 N.ar    1  UNL1       -0.2223
     26 C          63.9911   87.6474   14.6354 C.ar    1  UNL1        0.1791
@<TRIPOS>BOND
     1     1     2    1
     2     2     3   ar
     3     3     4   ar
     4     4    14    1
     5    14    15    1
     6    15    16   ar
     7    16    17   ar
     8    17    18   ar
     9    18    19    1
    10    18    20   ar
    11    20    21   ar
    12    14    22    1
    13    22    23   ar
    14    23    24   ar
    15    24    25   ar
    16    25    26   ar
    17     4     5   ar
    18     5     6   ar
    19     6     7    1
    20     7     8   ar
    21     8     9   ar
    22     9    10   ar
    23    10    11    1
    24    10    12   ar
    25    12    13   ar
    26     6     2   ar
    27    13     7   ar
    28    21    15   ar
    29    26    22   ar
@<TRIPOS>MOLECULE
*****
 26 29 0 0 0
SMALL
GASTEIGER

@<TRIPOS>ATOM
      1 C          62.4501   89.5519   14.1136 C.3     1  UNL1        0.1305
      2 N          63.3348   90.3959   13.2447 N.ar    1  UNL1       -0.3242
      3 C          64.4582   91.2708   13.7162 C.ar    1  UNL1        0.0738
      4 C          65.0691   91.9288   12.5146 C.ar    1  UNL1        0.0211
      5 C          64.3232   91.4605   11.3004 C.ar    1  UNL1        0.0165
      6 C          63.2513   90.5131   11.7515 C.ar    1  UNL1        0.0597
      7 C          62.2686   89.8070   10.8652 C.ar    1  UNL1        0.0158
      8 C          60.9783   90.4756   10.4938 C.ar    1  UNL1        0.0023
      9 C          59.9956   89.7695    9.6076 C.ar    1  UNL1        0.0114
     10 C          60.3031   88.3947    9.0927 C.ar    1  UNL1        0.0577
     11 CL         59.3204   87.6885    8.2064 Cl      1  UNL1       -0.0822
     12 C          61.5934   87.7259    9.4641 C.ar    1  UNL1        0.0114
     13 C          62.5761   88.4321   10.3503 C.ar    1  UNL1        0.0023
     14 C          66.2232   92.8868   12.5254 C.3     1  UNL1        0.1336
     15 C          66.4443   93.8079   11.3622 C.ar    1  UNL1        0.0026
     16 C          67.1250   93.3030   10.1246 C.ar    1  UNL1       -0.0013
     17 C          67.3461   94.2240    8.9615 C.ar    1  UNL1        0.0111
     18 C          66.8864   95.6499    9.0360 C.ar    1  UNL1        0.0577
     19 CL         67.1075   96.5709    7.8729 Cl      1  UNL1       -0.0822
     20 C          66.2057   96.1548   10.2736 C.ar    1  UNL1        0.0111
     21 C          65.9846   95.2338   11.4367 C.ar    1  UNL1       -0.0013
     22 N          67.1563   92.9239   13.6993 N.ar    1  UNL1       -0.3019
     23 C          67.0777   93.8727   14.8584 C.ar    1  UNL1        0.0985
     24 C          68.2046   93.5539   15.7956 C.ar    1  UNL1        0.1193
     25 N          68.9797   92.4080   15.2158 N.ar    1  UNL1       -0.2223
     26 C          68.3317   92.0187   13.9202 C.ar    1  UNL1        0.1791
@<TRIPOS>BOND
     1     1     2    1
     2     2     3   ar
     3     3     4   ar
     4     4    14    1
     5    14    15    1
     6    15    16   ar
     7    16    17   ar
     8    17    18   ar
     9    18    19    1
    10    18    20   ar
    11    20    21   ar
    12    14    22    1
    13    22    23   ar
    14    23    24   ar
    15    24    25   ar
    16    25    26   ar
    17     4     5   ar
    18     5     6   ar
    19     6     7    1
    20     7     8   ar
    21     8     9   ar
    22     9    10   ar
    23    10    11    1
    24    10    12   ar
    25    12    13   ar
    26     6     2   ar
    27    13     7   ar
    28    21    15   ar
    29    26    22   ar
@<TRIPOS>MOLECULE
*****
 26 29 0 0 0
SMALL
GASTEIGER

@<TRIPOS>ATOM
      1 C          66.7799   93.1128   14.0122 C.3     1  UNL1        0.1305
      2 N          65.7839   92.3726   13.1694 N.ar    1  UNL1       -0.3242
      3 C          64.9173   91.2354   13.6231 C.ar    1  UNL1        0.0738
      4 C          64.0776   90.7996   12.4591 C.ar    1  UNL1        0.0211
      5 C          64.4252   91.6674   11.2861 C.ar    1  UNL1        0.0165
      6 C          65.4798   92.6396   11.7250 C.ar    1  UNL1        0.0597
      7 C          66.1181   93.6936   10.8698 C.ar    1  UNL1        0.0158
      8 C          65.7894   95.1401   11.0918 C.ar    1  UNL1        0.0023
      9 C          66.4277   96.1942   10.2366 C.ar    1  UNL1        0.0114
     10 C          67.3948   95.8018    9.1593 C.ar    1  UNL1        0.0577
     11 CL         68.0331   96.8558    8.3041 Cl      1  UNL1       -0.0822
     12 C          67.7236   94.3552    8.9372 C.ar    1  UNL1        0.0114
     13 C          67.0853   93.3011    9.7924 C.ar    1  UNL1        0.0023
     14 C          63.0676   89.6906   12.4669 C.3     1  UNL1        0.1336
     15 C          63.4317   88.3484   13.0290 C.ar    1  UNL1        0.0026
     16 C          64.1900   88.2565   14.3199 C.ar    1  UNL1       -0.0013
     17 C          64.5541   86.9144   14.8820 C.ar    1  UNL1        0.0111
     18 C          64.1599   85.6640   14.1531 C.ar    1  UNL1        0.0577
     19 CL         64.5241   84.3218   14.7152 Cl      1  UNL1       -0.0822
     20 C          63.4016   85.7559   12.8622 C.ar    1  UNL1        0.0111
     21 C          63.0376   87.0980   12.3001 C.ar    1  UNL1       -0.0013
     22 N          61.6934   89.9238   11.9126 N.ar    1  UNL1       -0.3019
     23 C          60.4027   89.7667   12.6604 C.ar    1  UNL1        0.0985
     24 C          59.2802   90.1009   11.7231 C.ar    1  UNL1        0.1193
     25 N          59.8773   90.4645   10.3960 N.ar    1  UNL1       -0.2223
     26 C          61.3687   90.3551   10.5131 C.ar    1  UNL1        0.1791
@<TRIPOS>BOND
     1     1     2    1
     2     2     3   ar
     3     3     4   ar
     4     4    14    1
     5    14    15    1
     6    15    16   ar
     7    16    17   ar
     8    17    18   ar
     9    18    19    1
    10    18    20   ar
    11    20    21   ar
    12    14    22    1
    13    22    23   ar
    14    23    24   ar
    15    24    25   ar
    16    25    26   ar
    17     4     5   ar
    18     5     6   ar
    19     6     7    1
    20     7     8   ar
    21     8     9   ar
    22     9    10   ar
    23    10    11    1
    24    10    12   ar
    25    12    13   ar
    26     6     2   ar
    27    13     7   ar
    28    21    15   ar
    29    26    22   ar
@<TRIPOS>MOLECULE
*****
 26 29 0 0 0
SMALL
GASTEIGER

@<TRIPOS>ATOM
      1 C          63.1921   91.6861   10.3145 C.3     1  UNL1        0.1305
      2 N          63.0117   90.2541   10.7230 N.ar    1  UNL1       -0.3242
      3 C          62.4378   89.1601    9.8722 C.ar    1  UNL1        0.0738
      4 C          62.4451   87.8946   10.6773 C.ar    1  UNL1        0.0211
      5 C          63.0235   88.2064   12.0258 C.ar    1  UNL1        0.0165
      6 C          63.3737   89.6646   12.0540 C.ar    1  UNL1        0.0597
      7 C          63.9795   90.4037   13.2102 C.ar    1  UNL1        0.0158
      8 C          63.4260   90.2181   14.5919 C.ar    1  UNL1        0.0023
      9 C          64.0318   90.9572   15.7481 C.ar    1  UNL1        0.0114
     10 C          65.1911   91.8818   15.5226 C.ar    1  UNL1        0.0577
     11 CL         65.7969   92.6208   16.6788 Cl      1  UNL1       -0.0822
     12 C          65.7447   92.0674   14.1409 C.ar    1  UNL1        0.0114
     13 C          65.1389   91.3283   12.9847 C.ar    1  UNL1        0.0023
     14 C          61.9592   86.5528   10.2152 C.3     1  UNL1        0.1336
     15 C          62.5173   85.3018   10.8264 C.ar    1  UNL1        0.0026
     16 C          62.2136   84.9656   12.2563 C.ar    1  UNL1       -0.0013
     17 C          62.7717   83.7146   12.8674 C.ar    1  UNL1        0.0111
     18 C          63.6334   82.7998   12.0486 C.ar    1  UNL1        0.0577
     19 CL         64.1915   81.5487   12.6598 Cl      1  UNL1       -0.0822
     20 C          63.9371   83.1359   10.6187 C.ar    1  UNL1        0.0111
     21 C          63.3791   84.3870   10.0076 C.ar    1  UNL1       -0.0013
     22 N          60.9153   86.4621    9.1419 N.ar    1  UNL1       -0.3019
     23 C          59.5738   87.1330    9.1577 C.ar    1  UNL1        0.0985
     24 C          58.8590   86.7700    7.8899 C.ar    1  UNL1        0.1193
     25 N          59.7587   85.8747    7.0906 N.ar    1  UNL1       -0.2223
     26 C          61.0295   85.6844    7.8643 C.ar    1  UNL1        0.1791
@<TRIPOS>BOND
     1     1     2    1
     2     2     3   ar
     3     3     4   ar
     4     4    14    1
     5    14    15    1
     6    15    16   ar
     7    16    17   ar
     8    17    18   ar
     9    18    19    1
    10    18    20   ar
    11    20    21   ar
    12    14    22    1
    13    22    23   ar
    14    23    24   ar
    15    24    25   ar
    16    25    26   ar
    17     4     5   ar
    18     5     6   ar
    19     6     7    1
    20     7     8   ar
    21     8     9   ar
    22     9    10   ar
    23    10    11    1
    24    10    12   ar
    25    12    13   ar
    26     6     2   ar
    27    13     7   ar
    28    21    15   ar
    29    26    22   ar
@<TRIPOS>MOLECULE
*****
 26 29 0 0 0
SMALL
GASTEIGER

@<TRIPOS>ATOM
      1 C          64.8158   85.3388   15.6681 C.3     1  UNL1        0.1305
      2 N          64.2038   86.0814   14.5175 N.ar    1  UNL1       -0.3242
      3 C          64.2064   87.5692   14.3269 C.ar    1  UNL1        0.0738
      4 C          63.4860   87.8739   13.0470 C.ar    1  UNL1        0.0211
      5 C          63.0381   86.5743   12.4466 C.ar    1  UNL1        0.0165
      6 C          63.4817   85.4664   13.3553 C.ar    1  UNL1        0.0597
      7 C          63.2448   84.0010   13.1398 C.ar    1  UNL1        0.0158
      8 C          63.7780   83.3280   11.9100 C.ar    1  UNL1        0.0023
      9 C          63.5412   81.8626   11.6945 C.ar    1  UNL1        0.0114
     10 C          62.7711   81.0702   12.7089 C.ar    1  UNL1        0.0577
     11 CL         62.5342   79.6048   12.4934 Cl      1  UNL1       -0.0822
     12 C          62.2378   81.7433   13.9387 C.ar    1  UNL1        0.0114
     13 C          62.4746   83.2087   14.1542 C.ar    1  UNL1        0.0023
     14 C          63.2541   89.2385   12.4691 C.3     1  UNL1        0.1336
     15 C          64.1331   90.3842   12.8752 C.ar    1  UNL1        0.0026
     16 C          64.4368   91.4799   11.8969 C.ar    1  UNL1       -0.0013
     17 C          65.3157   92.6255   12.3030 C.ar    1  UNL1        0.0111
     18 C          65.8908   92.6756   13.6875 C.ar    1  UNL1        0.0577
     19 CL         66.7697   93.8213   14.0936 Cl      1  UNL1       -0.0822
     20 C          65.5870   91.5799   14.6658 C.ar    1  UNL1        0.0111
     21 C          64.7081   90.4342   14.2597 C.ar    1  UNL1       -0.0013
     22 N          62.1434   89.4574   11.4850 N.ar    1  UNL1       -0.3019
     23 C          60.8035   90.0601   11.7875 C.ar    1  UNL1        0.0985
     24 C          60.0096   90.0873   10.5151 C.ar    1  UNL1        0.1193
     25 N          60.8588   89.5014    9.4263 N.ar    1  UNL1       -0.2223
     26 C          62.1776   89.1122   10.0257 C.ar    1  UNL1        0.1791
@<TRIPOS>BOND
     1     1     2    1
     2     2     3   ar
     3     3     4   ar
     4     4    14    1
     5    14    15    1
     6    15    16   ar
     7    16    17   ar
     8    17    18   ar
     9    18    19    1
    10    18    20   ar
    11    20    21   ar
    12    14    22    1
    13    22    23   ar
    14    23    24   ar
    15    24    25   ar
    16    25    26   ar
    17     4     5   ar
    18     5     6   ar
    19     6     7    1
    20     7     8   ar
    21     8     9   ar
    22     9    10   ar
    23    10    11    1
    24    10    12   ar
    25    12    13   ar
    26     6     2   ar
    27    13     7   ar
    28    21    15   ar
    29    26    22   ar
@<TRIPOS>MOLECULE
*****
 26 29 0 0 0
SMALL
GASTEIGER

@<TRIPOS>ATOM
      1 C          63.0002   91.5719    9.6515 C.3     1  UNL1        0.1305
      2 N          63.1394   90.7262   10.8826 N.ar    1  UNL1       -0.3242
      3 C          63.8868   91.0991   12.1285 C.ar    1  UNL1        0.0738
      4 C          63.7649   89.9626   13.0998 C.ar    1  UNL1        0.0211
      5 C          62.9421   88.8873   12.4542 C.ar    1  UNL1        0.0165
      6 C          62.5555   89.3592   11.0838 C.ar    1  UNL1        0.0597
      7 C          61.7300   88.5979   10.0894 C.ar    1  UNL1        0.0158
      8 C          62.0330   87.1555    9.8108 C.ar    1  UNL1        0.0023
      9 C          61.2075   86.3942    8.8164 C.ar    1  UNL1        0.0114
     10 C          60.0790   87.0753    8.1006 C.ar    1  UNL1        0.0577
     11 CL         59.2535   86.3139    7.1062 Cl      1  UNL1       -0.0822
     12 C          59.7759   88.5177    8.3791 C.ar    1  UNL1        0.0114
     13 C          60.6014   89.2790    9.3736 C.ar    1  UNL1        0.0023
     14 C          64.3611   89.9105   14.4752 C.3     1  UNL1        0.1336
     15 C          65.4103   90.9048   14.8760 C.ar    1  UNL1        0.0026
     16 C          66.7454   90.9031   14.1923 C.ar    1  UNL1       -0.0013
     17 C          67.7945   91.8974   14.5932 C.ar    1  UNL1        0.0111
     18 C          67.5085   92.8934   15.6777 C.ar    1  UNL1        0.0577
     19 CL         68.5577   93.8878   16.0785 Cl      1  UNL1       -0.0822
     20 C          66.1734   92.8951   16.3614 C.ar    1  UNL1        0.0111
     21 C          65.1243   91.9008   15.9605 C.ar    1  UNL1       -0.0013
     22 N          63.9082   88.8641   15.4498 N.ar    1  UNL1       -0.3019
     23 C          63.1482   89.1114   16.7192 C.ar    1  UNL1        0.0985
     24 C          62.9061   87.7868   17.3801 C.ar    1  UNL1        0.1193
     25 N          63.5165   86.7208   16.5192 N.ar    1  UNL1       -0.2223
     26 C          64.1358   87.3866   15.3263 C.ar    1  UNL1        0.1791
@<TRIPOS>BOND
     1     1     2    1
     2     2     3   ar
     3     3     4   ar
     4     4    14    1
     5    14    15    1
     6    15    16   ar
     7    16    17   ar
     8    17    18   ar
     9    18    19    1
    10    18    20   ar
    11    20    21   ar
    12    14    22    1
    13    22    23   ar
    14    23    24   ar
    15    24    25   ar
    16    25    26   ar
    17     4     5   ar
    18     5     6   ar
    19     6     7    1
    20     7     8   ar
    21     8     9   ar
    22     9    10   ar
    23    10    11    1
    24    10    12   ar
    25    12    13   ar
    26     6     2   ar
    27    13     7   ar
    28    21    15   ar
    29    26    22   ar
@<TRIPOS>MOLECULE
*****
 26 29 0 0 0
SMALL
GASTEIGER

@<TRIPOS>ATOM
      1 C          62.3265   89.8393   12.4117 C.3     1  UNL1        0.1305
      2 N          63.6160   90.3965   12.9377 N.ar    1  UNL1       -0.3242
      3 C          64.3842   91.5444   12.3527 C.ar    1  UNL1        0.0738
      4 C          65.6066   91.7610   13.1945 C.ar    1  UNL1        0.0211
      5 C          65.5940   90.7470   14.2998 C.ar    1  UNL1        0.0165
      6 C          64.3637   89.9037   14.1411 C.ar    1  UNL1        0.0597
      7 C          63.9531   88.7672   15.0298 C.ar    1  UNL1        0.0158
      8 C          63.2072   89.0414   16.3018 C.ar    1  UNL1        0.0023
      9 C          62.7966   87.9048   17.1905 C.ar    1  UNL1        0.0114
     10 C          63.1320   86.4941   16.8070 C.ar    1  UNL1        0.0577
     11 CL         62.7215   85.3575   17.6957 Cl      1  UNL1       -0.0822
     12 C          63.8780   86.2198   15.5349 C.ar    1  UNL1        0.0114
     13 C          64.2886   87.3563   14.6463 C.ar    1  UNL1        0.0023
     14 C          66.6573   92.8079   12.9704 C.3     1  UNL1        0.1336
     15 C          66.6553   93.6137   11.7052 C.ar    1  UNL1        0.0026
     16 C          67.1968   93.0215   10.4380 C.ar    1  UNL1       -0.0013
     17 C          67.1948   93.8273    9.1728 C.ar    1  UNL1        0.0111
     18 C          66.6513   95.2254    9.1750 C.ar    1  UNL1        0.0577
     19 CL         66.6493   96.0312    7.9098 Cl      1  UNL1       -0.0822
     20 C          66.1097   95.8176   10.4422 C.ar    1  UNL1        0.0111
     21 C          66.1118   95.0118   11.7074 C.ar    1  UNL1       -0.0013
     22 N          67.7100   93.0489   14.0115 N.ar    1  UNL1       -0.3019
     23 C          67.5671   93.9192   15.2248 C.ar    1  UNL1        0.0985
     24 C          68.8592   93.8701   15.9852 C.ar    1  UNL1        0.1193
     25 N          69.8006   92.9695   15.2418 N.ar    1  UNL1       -0.2223
     26 C          69.0903   92.4620   14.0220 C.ar    1  UNL1        0.1791
@<TRIPOS>BOND
     1     1     2    1
     2     2     3   ar
     3     3     4   ar
     4     4    14    1
     5    14    15    1
     6    15    16   ar
     7    16    17   ar
     8    17    18   ar
     9    18    19    1
    10    18    20   ar
    11    20    21   ar
    12    14    22    1
    13    22    23   ar
    14    23    24   ar
    15    24    25   ar
    16    25    26   ar
    17     4     5   ar
    18     5     6   ar
    19     6     7    1
    20     7     8   ar
    21     8     9   ar
    22     9    10   ar
    23    10    11    1
    24    10    12   ar
    25    12    13   ar
    26     6     2   ar
    27    13     7   ar
    28    21    15   ar
    29    26    22   ar
@<TRIPOS>MOLECULE
*****
 26 29 0 0 0
SMALL
GASTEIGER

@<TRIPOS>ATOM
      1 C          63.2819   87.8670   13.2913 C.3     1  UNL1        0.1305
      2 N          63.7268   89.2085   12.7887 N.ar    1  UNL1       -0.3242
      3 C          64.7459   90.0988   13.4358 C.ar    1  UNL1        0.0738
      4 C          64.8797   91.3357   12.5979 C.ar    1  UNL1        0.0211
      5 C          63.9432   91.2098   11.4329 C.ar    1  UNL1        0.0165
      6 C          63.2306   89.8952   11.5508 C.ar    1  UNL1        0.0597
      7 C          62.2025   89.3610   10.5981 C.ar    1  UNL1        0.0158
      8 C          62.3010   87.9486   10.1030 C.ar    1  UNL1        0.0023
      9 C          61.2728   87.4144    9.1503 C.ar    1  UNL1        0.0114
     10 C          60.1463   88.2927    8.6928 C.ar    1  UNL1        0.0577
     11 CL         59.1181   87.7585    7.7402 Cl      1  UNL1       -0.0822
     12 C          60.0478   89.7051    9.1880 C.ar    1  UNL1        0.0114
     13 C          61.0759   90.2393   10.1406 C.ar    1  UNL1        0.0023
     14 C          65.7901   92.4948   12.8761 C.3     1  UNL1        0.1336
     15 C          66.1758   93.4286   11.7673 C.ar    1  UNL1        0.0026
     16 C          65.9392   94.9027   11.9117 C.ar    1  UNL1       -0.0013
     17 C          66.3249   95.8364   10.8029 C.ar    1  UNL1        0.0111
     18 C          66.9472   95.2959    9.5497 C.ar    1  UNL1        0.0577
     19 CL         67.3329   96.2296    8.4408 Cl      1  UNL1       -0.0822
     20 C          67.1838   93.8217    9.4052 C.ar    1  UNL1        0.0111
     21 C          66.7981   92.8881   10.5140 C.ar    1  UNL1       -0.0013
     22 N          66.3148   92.7203   14.2631 N.ar    1  UNL1       -0.3019
     23 C          67.6404   93.3268   14.6165 C.ar    1  UNL1        0.0985
     24 C          67.7510   93.3603   16.1121 C.ar    1  UNL1        0.1193
     25 N          66.4936   92.7745   16.6830 N.ar    1  UNL1       -0.2223
     26 C          65.6061   92.3790   15.5403 C.ar    1  UNL1        0.1791
@<TRIPOS>BOND
     1     1     2    1
     2     2     3   ar
     3     3     4   ar
     4     4    14    1
     5    14    15    1
     6    15    16   ar
     7    16    17   ar
     8    17    18   ar
     9    18    19    1
    10    18    20   ar
    11    20    21   ar
    12    14    22    1
    13    22    23   ar
    14    23    24   ar
    15    24    25   ar
    16    25    26   ar
    17     4     5   ar
    18     5     6   ar
    19     6     7    1
    20     7     8   ar
    21     8     9   ar
    22     9    10   ar
    23    10    11    1
    24    10    12   ar
    25    12    13   ar
    26     6     2   ar
    27    13     7   ar
    28    21    15   ar
    29    26    22   ar
@<TRIPOS>MOLECULE
*****
 26 29 0 0 0
SMALL
GASTEIGER

@<TRIPOS>ATOM
      1 C          62.0247   89.5996   13.5944 C.3     1  UNL1        0.1305
      2 N          62.9786   90.3625   12.7237 N.ar    1  UNL1       -0.3242
      3 C          64.0699   91.2749   13.1998 C.ar    1  UNL1        0.0738
      4 C          64.7745   91.8232   11.9944 C.ar    1  UNL1        0.0211
      5 C          64.1187   91.2496   10.7733 C.ar    1  UNL1        0.0165
      6 C          63.0088   90.3468   11.2240 C.ar    1  UNL1        0.0597
      7 C          62.0904   89.5655   10.3318 C.ar    1  UNL1        0.0158
      8 C          60.8838   90.2264    9.7342 C.ar    1  UNL1        0.0023
      9 C          59.9654   89.4452    8.8420 C.ar    1  UNL1        0.0114
     10 C          60.2536   88.0030    8.5474 C.ar    1  UNL1        0.0577
     11 CL         59.3351   87.2217    7.6551 Cl      1  UNL1       -0.0822
     12 C          61.4602   87.3420    9.1449 C.ar    1  UNL1        0.0114
     13 C          62.3786   88.1232   10.0372 C.ar    1  UNL1        0.0023
     14 C          65.9316   92.7775   12.0078 C.3     1  UNL1        0.1336
     15 C          66.8833   92.7862   13.1672 C.ar    1  UNL1        0.0026
     16 C          66.6304   93.6886   14.3383 C.ar    1  UNL1       -0.0013
     17 C          67.5821   93.6973   15.4977 C.ar    1  UNL1        0.0111
     18 C          68.7867   92.8035   15.4860 C.ar    1  UNL1        0.0577
     19 CL         69.7384   92.8121   16.6454 Cl      1  UNL1       -0.0822
     20 C          69.0395   91.9010   14.3149 C.ar    1  UNL1        0.0111
     21 C          68.0879   91.8923   13.1555 C.ar    1  UNL1       -0.0013
     22 N          66.1372   93.7232   10.8617 N.ar    1  UNL1       -0.3019
     23 C          65.5528   95.0991   10.7383 C.ar    1  UNL1        0.0985
     24 C          66.0177   95.6853    9.4381 C.ar    1  UNL1        0.1193
     25 N          66.8893   94.6715    8.7580 N.ar    1  UNL1       -0.2223
     26 C          66.9632   93.4589    9.6378 C.ar    1  UNL1        0.1791
@<TRIPOS>BOND
     1     1     2    1
     2     2     3   ar
     3     3     4   ar
     4     4    14    1
     5    14    15    1
     6    15    16   ar
     7    16    17   ar
     8    17    18   ar
     9    18    19    1
    10    18    20   ar
    11    20    21   ar
    12    14    22    1
    13    22    23   ar
    14    23    24   ar
    15    24    25   ar
    16    25    26   ar
    17     4     5   ar
    18     5     6   ar
    19     6     7    1
    20     7     8   ar
    21     8     9   ar
    22     9    10   ar
    23    10    11    1
    24    10    12   ar
    25    12    13   ar
    26     6     2   ar
    27    13     7   ar
    28    21    15   ar
    29    26    22   ar
