@<TRIPOS>MOLECULE
*****
 26 29 0 0 0
SMALL
GASTEIGER

@<TRIPOS>ATOM
      1 C          63.9018   90.3670   15.8544 C.3     1  UNL1        0.1347
      2 N          64.5567   91.1111   14.7286 N.ar    1  UNL1       -0.2816
      3 C          64.2903   90.7087   13.3084 C.ar    1  UNL1        0.1332
      4 N          64.9451   91.4527   12.1825 N.ar    1  UNL1       -0.2170
      5 C          65.8663   92.5992   12.4770 C.ar    1  UNL1        0.1379
      6 C          66.1328   93.0017   13.8972 C.ar    1  UNL1        0.0950
      7 C          65.4779   92.2577   15.0230 C.ar    1  UNL1        0.2647
      8 O          65.7443   92.6602   16.4432 O.2     1  UNL1       -0.2668
      9 N          66.5212   93.3434   11.3511 N.pl3   1  UNL1       -0.2879
     10 C          67.3687   92.6057   10.3572 C.3     1  UNL1        0.1242
     11 C          68.0235   93.3499    9.2314 C.3     1  UNL1        0.1636
     12 O          67.8309   94.8316    9.0995 O.3     1  UNL1       -0.3501
     13 C          66.9835   95.5692   10.0933 C.3     1  UNL1        0.1636
     14 C          66.3287   94.8251   11.2191 C.3     1  UNL1        0.1242
     15 C          63.3690   89.5621   13.0140 C.3     1  UNL1        0.1494
     16 C          62.4750   89.6083   11.8103 C.2     1  UNL1        0.2370
     17 O          62.0002   90.9282   11.2791 O.2     1  UNL1       -0.2741
     18 N          62.0558   88.3346   11.1381 N.am    1  UNL1       -0.2582
     19 C          62.4488   86.9478   11.5533 C.3     1  UNL1        0.1029
     20 C          61.8059   85.9802   10.6044 C.3     1  UNL1        0.0495
     21 C          61.0156   86.7689    9.6027 C.ar    1  UNL1       -0.0068
     22 C          60.1754   86.3501    8.4329 C.ar    1  UNL1       -0.0030
     23 C          59.4895   87.3865    7.5929 C.ar    1  UNL1       -0.0002
     24 C          59.6439   88.8416    7.9228 C.ar    1  UNL1        0.0013
     25 C          60.4842   89.2604    9.0926 C.ar    1  UNL1        0.0146
     26 C          61.1701   88.2240    9.9326 C.ar    1  UNL1        0.0499
@<TRIPOS>BOND
     1     1     2    1
     2     2     3   ar
     3     3    15    1
     4    15    16    1
     5    16    17    2
     6    16    18   am
     7    18    19    1
     8    19    20    1
     9    20    21    1
    10    21    22   ar
    11    22    23   ar
    12    23    24   ar
    13    24    25   ar
    14    25    26   ar
    15     3     4   ar
    16     4     5   ar
    17     5     9    1
    18     9    10    1
    19    10    11    1
    20    11    12    1
    21    12    13    1
    22    13    14    1
    23     5     6   ar
    24     6     7   ar
    25     7     8    2
    26     7     2   ar
    27    26    18    1
    28    14     9    1
    29    26    21   ar
@<TRIPOS>MOLECULE
*****
 26 29 0 0 0
SMALL
GASTEIGER

@<TRIPOS>ATOM
      1 C          60.1488   89.1618    8.9944 C.3     1  UNL1        0.1347
      2 N          60.8574   88.0675    9.7361 N.ar    1  UNL1       -0.2816
      3 C          61.5140   88.3574   11.0533 C.ar    1  UNL1        0.1332
      4 N          62.2227   87.2632   11.7951 N.ar    1  UNL1       -0.2170
      5 C          62.2748   85.8789   11.2197 C.ar    1  UNL1        0.1379
      6 C          61.6182   85.5889    9.9026 C.ar    1  UNL1        0.0950
      7 C          60.9095   86.6832    9.1608 C.ar    1  UNL1        0.2647
      8 O          60.2530   86.3933    7.8436 O.2     1  UNL1       -0.2668
      9 N          62.9835   84.7845   11.9615 N.pl3   1  UNL1       -0.2879
     10 C          63.1485   83.4345   11.3288 C.3     1  UNL1        0.1242
     11 C          63.8572   82.3402   12.0706 C.3     1  UNL1        0.1636
     12 O          64.4009   82.5959   13.4450 O.3     1  UNL1       -0.3501
     13 C          64.2359   83.9459   14.0777 C.3     1  UNL1        0.1636
     14 C          63.5272   85.0402   13.3359 C.3     1  UNL1        0.1242
     15 C          61.4619   89.7417   11.6287 C.3     1  UNL1        0.1494
     16 C          62.4806   90.1713   12.6426 C.2     1  UNL1        0.2370
     17 O          62.3433   89.7402   14.0726 O.2     1  UNL1       -0.2741
     18 N          63.6364   91.0320   12.2263 N.am    1  UNL1       -0.2582
     19 C          63.9041   91.5386   10.8400 C.3     1  UNL1        0.1029
     20 C          65.1605   92.3569   10.8802 C.3     1  UNL1        0.0495
     21 C          65.6694   92.3561   12.2913 C.ar    1  UNL1       -0.0068
     22 C          66.8688   92.9951   12.9260 C.ar    1  UNL1       -0.0030
     23 C          67.1262   92.8153   14.3928 C.ar    1  UNL1       -0.0002
     24 C          66.1842   91.9964   15.2247 C.ar    1  UNL1        0.0013
     25 C          64.9848   91.3574   14.5899 C.ar    1  UNL1        0.0146
     26 C          64.7274   91.5372   13.1232 C.ar    1  UNL1        0.0499
@<TRIPOS>BOND
     1     1     2    1
     2     2     3   ar
     3     3    15    1
     4    15    16    1
     5    16    17    2
     6    16    18   am
     7    18    19    1
     8    19    20    1
     9    20    21    1
    10    21    22   ar
    11    22    23   ar
    12    23    24   ar
    13    24    25   ar
    14    25    26   ar
    15     3     4   ar
    16     4     5   ar
    17     5     9    1
    18     9    10    1
    19    10    11    1
    20    11    12    1
    21    12    13    1
    22    13    14    1
    23     5     6   ar
    24     6     7   ar
    25     7     8    2
    26     7     2   ar
    27    26    18    1
    28    14     9    1
    29    26    21   ar
@<TRIPOS>MOLECULE
*****
 26 29 0 0 0
SMALL
GASTEIGER

@<TRIPOS>ATOM
      1 C          60.0807   89.0546    8.6687 C.3     1  UNL1        0.1347
      2 N          60.7813   88.0347    9.5166 N.ar    1  UNL1       -0.2816
      3 C          61.4159   88.4448   10.8124 C.ar    1  UNL1        0.1332
      4 N          62.1164   87.4250   11.6604 N.ar    1  UNL1       -0.2170
      5 C          62.1824   85.9949   11.2125 C.ar    1  UNL1        0.1379
      6 C          61.5478   85.5848    9.9167 C.ar    1  UNL1        0.0950
      7 C          60.8472   86.6046    9.0688 C.ar    1  UNL1        0.2647
      8 O          60.2126   86.1945    7.7730 O.2     1  UNL1       -0.2668
      9 N          62.8830   84.9749   12.0604 N.pl3   1  UNL1       -0.2879
     10 C          63.5275   85.3873   13.3507 C.3     1  UNL1        0.1242
     11 C          64.2280   84.3673   14.1985 C.3     1  UNL1        0.1636
     12 O          64.2841   82.9351   13.7562 O.3     1  UNL1       -0.3501
     13 C          63.6396   82.5228   12.4660 C.3     1  UNL1        0.1636
     14 C          62.9391   83.5427   11.6181 C.3     1  UNL1        0.1242
     15 C          61.3499   89.8749   11.2603 C.3     1  UNL1        0.1494
     16 C          62.6053   90.6909   11.3516 C.2     1  UNL1        0.2370
     17 O          63.0790   91.4738   10.1631 O.2     1  UNL1       -0.2741
     18 N          63.3869   90.7239   12.6315 N.am    1  UNL1       -0.2582
     19 C          63.0387   89.9965   13.8962 C.3     1  UNL1        0.1029
     20 C          64.0905   90.3132   14.9177 C.3     1  UNL1        0.0495
     21 C          65.0888   91.2363   14.2842 C.ar    1  UNL1       -0.0068
     22 C          66.3376   91.8785   14.8115 C.ar    1  UNL1       -0.0030
     23 C          67.1515   92.7746   13.9257 C.ar    1  UNL1       -0.0002
     24 C          66.7167   93.0284   12.5128 C.ar    1  UNL1        0.0013
     25 C          65.4679   92.3862   11.9855 C.ar    1  UNL1        0.0146
     26 C          64.6540   91.4902   12.8713 C.ar    1  UNL1        0.0499
@<TRIPOS>BOND
     1     1     2    1
     2     2     3   ar
     3     3    15    1
     4    15    16    1
     5    16    17    2
     6    16    18   am
     7    18    19    1
     8    19    20    1
     9    20    21    1
    10    21    22   ar
    11    22    23   ar
    12    23    24   ar
    13    24    25   ar
    14    25    26   ar
    15     3     4   ar
    16     4     5   ar
    17     5     9    1
    18     9    10    1
    19    10    11    1
    20    11    12    1
    21    12    13    1
    22    13    14    1
    23     5     6   ar
    24     6     7   ar
    25     7     8    2
    26     7     2   ar
    27    26    18    1
    28    14     9    1
    29    26    21   ar
@<TRIPOS>MOLECULE
*****
 26 29 0 0 0
SMALL
GASTEIGER

@<TRIPOS>ATOM
      1 C          64.1926   91.2004   16.1140 C.3     1  UNL1        0.1347
      2 N          64.8419   91.6281   14.8313 N.ar    1  UNL1       -0.2816
      3 C          64.2184   91.2629   13.5168 C.ar    1  UNL1        0.1332
      4 N          64.8676   91.6905   12.2341 N.ar    1  UNL1       -0.2170
      5 C          66.1406   92.4833   12.2658 C.ar    1  UNL1        0.1379
      6 C          66.7642   92.8485   13.5802 C.ar    1  UNL1        0.0950
      7 C          66.1149   92.4209   14.8630 C.ar    1  UNL1        0.2647
      8 O          66.7385   92.7861   16.1774 O.2     1  UNL1       -0.2668
      9 N          66.7900   92.9110   10.9829 N.pl3   1  UNL1       -0.2879
     10 C          67.8580   92.0597   10.3628 C.3     1  UNL1        0.1242
     11 C          68.5073   92.4874    9.0801 C.3     1  UNL1        0.1636
     12 O          68.0886   93.7663    8.4175 O.3     1  UNL1       -0.3501
     13 C          67.0206   94.6176    9.0376 C.3     1  UNL1        0.1636
     14 C          66.3713   94.1899   10.3203 C.3     1  UNL1        0.1242
     15 C          62.9454   90.4700   13.4851 C.3     1  UNL1        0.1494
     16 C          62.8313   89.2700   12.5923 C.2     1  UNL1        0.2370
     17 O          63.6908   88.0661   12.8406 O.2     1  UNL1       -0.2741
     18 N          61.8576   89.2740   11.4512 N.am    1  UNL1       -0.2582
     19 C          60.9372   90.3993   11.0816 C.3     1  UNL1        0.1029
     20 C          60.1442   89.9742    9.8815 C.3     1  UNL1        0.0495
     21 C          60.5745   88.5863    9.5093 C.ar    1  UNL1       -0.0068
     22 C          60.1389   87.6606    8.4124 C.ar    1  UNL1       -0.0030
     23 C          60.7623   86.3022    8.2856 C.ar    1  UNL1       -0.0002
     24 C          61.8213   85.8695    9.2558 C.ar    1  UNL1        0.0013
     25 C          62.2569   86.7951   10.3528 C.ar    1  UNL1        0.0146
     26 C          61.6335   88.1535   10.4795 C.ar    1  UNL1        0.0499
@<TRIPOS>BOND
     1     1     2    1
     2     2     3   ar
     3     3    15    1
     4    15    16    1
     5    16    17    2
     6    16    18   am
     7    18    19    1
     8    19    20    1
     9    20    21    1
    10    21    22   ar
    11    22    23   ar
    12    23    24   ar
    13    24    25   ar
    14    25    26   ar
    15     3     4   ar
    16     4     5   ar
    17     5     9    1
    18     9    10    1
    19    10    11    1
    20    11    12    1
    21    12    13    1
    22    13    14    1
    23     5     6   ar
    24     6     7   ar
    25     7     8    2
    26     7     2   ar
    27    26    18    1
    28    14     9    1
    29    26    21   ar
@<TRIPOS>MOLECULE
*****
 26 29 0 0 0
SMALL
GASTEIGER

@<TRIPOS>ATOM
      1 C          64.6970   89.4313   14.6285 C.3     1  UNL1        0.1347
      2 N          63.8542   89.0542   13.4464 N.ar    1  UNL1       -0.2816
      3 C          63.5892   87.6089   13.1448 C.ar    1  UNL1        0.1332
      4 N          62.7464   87.2316   11.9627 N.ar    1  UNL1       -0.2170
      5 C          62.1686   88.2997   11.0822 C.ar    1  UNL1        0.1379
      6 C          62.4337   89.7450   11.3837 C.ar    1  UNL1        0.0950
      7 C          63.2764   90.1222   12.5658 C.ar    1  UNL1        0.2647
      8 O          63.5414   91.5675   12.8674 O.2     1  UNL1       -0.2668
      9 N          61.3258   87.9225    9.9000 N.pl3   1  UNL1       -0.2879
     10 C          61.3176   86.5061    9.4061 C.3     1  UNL1        0.1242
     11 C          60.4748   86.1290    8.2240 C.3     1  UNL1        0.1636
     12 O          59.6402   87.1681    7.5358 O.3     1  UNL1       -0.3501
     13 C          59.6484   88.5845    8.0297 C.3     1  UNL1        0.1636
     14 C          60.4912   88.9616    9.2118 C.3     1  UNL1        0.1242
     15 C          64.1670   86.5408   14.0254 C.3     1  UNL1        0.1494
     16 C          63.4014   85.2740   14.2687 C.2     1  UNL1        0.2370
     17 O          62.4516   85.1823   15.4260 O.2     1  UNL1       -0.2741
     18 N          63.5856   84.0990   13.3547 N.am    1  UNL1       -0.2582
     19 C          64.4951   84.0429   12.1632 C.3     1  UNL1        0.1029
     20 C          64.3643   82.6830   11.5439 C.3     1  UNL1        0.0495
     21 C          63.3739   81.8986   12.3526 C.ar    1  UNL1       -0.0068
     22 C          62.8482   80.5006   12.2144 C.ar    1  UNL1       -0.0030
     23 C          61.8412   79.9778   13.1955 C.ar    1  UNL1       -0.0002
     24 C          61.3599   80.8529   14.3147 C.ar    1  UNL1        0.0013
     25 C          61.8857   82.2509   14.4528 C.ar    1  UNL1        0.0146
     26 C          62.8927   82.7738   13.4717 C.ar    1  UNL1        0.0499
@<TRIPOS>BOND
     1     1     2    1
     2     2     3   ar
     3     3    15    1
     4    15    16    1
     5    16    17    2
     6    16    18   am
     7    18    19    1
     8    19    20    1
     9    20    21    1
    10    21    22   ar
    11    22    23   ar
    12    23    24   ar
    13    24    25   ar
    14    25    26   ar
    15     3     4   ar
    16     4     5   ar
    17     5     9    1
    18     9    10    1
    19    10    11    1
    20    11    12    1
    21    12    13    1
    22    13    14    1
    23     5     6   ar
    24     6     7   ar
    25     7     8    2
    26     7     2   ar
    27    26    18    1
    28    14     9    1
    29    26    21   ar
@<TRIPOS>MOLECULE
*****
 26 29 0 0 0
SMALL
GASTEIGER

@<TRIPOS>ATOM
      1 C          63.9346   90.7299   15.9637 C.3     1  UNL1        0.1347
      2 N          64.6248   91.3644   14.7927 N.ar    1  UNL1       -0.2816
      3 C          64.2346   90.9832   13.3955 C.ar    1  UNL1        0.1332
      4 N          64.9247   91.6176   12.2245 N.ar    1  UNL1       -0.2170
      5 C          66.0050   92.6333   12.4508 C.ar    1  UNL1        0.1379
      6 C          66.3952   93.0145   13.8481 C.ar    1  UNL1        0.0950
      7 C          65.7051   92.3801   15.0191 C.ar    1  UNL1        0.2647
      8 O          66.0953   92.7613   16.4164 O.2     1  UNL1       -0.2668
      9 N          66.6952   93.2678   11.2798 N.pl3   1  UNL1       -0.2879
     10 C          67.6116   92.4518   10.4170 C.3     1  UNL1        0.1242
     11 C          68.3017   93.0863    9.2461 C.3     1  UNL1        0.1636
     12 O          68.0755   94.5368    8.9379 O.3     1  UNL1       -0.3501
     13 C          67.1591   95.3528    9.8007 C.3     1  UNL1        0.1636
     14 C          66.4690   94.7182   10.9716 C.3     1  UNL1        0.1242
     15 C          63.1542   89.9675   13.1691 C.3     1  UNL1        0.1494
     16 C          63.4477   88.5075   13.3494 C.2     1  UNL1        0.2370
     17 O          64.2275   88.0411   14.5428 O.2     1  UNL1       -0.2741
     18 N          62.9614   87.5140   12.3362 N.am    1  UNL1       -0.2582
     19 C          62.1743   87.8299   11.0990 C.3     1  UNL1        0.1029
     20 C          61.9033   86.5413   10.3805 C.3     1  UNL1        0.0495
     21 C          62.5230   85.4291   11.1737 C.ar    1  UNL1       -0.0068
     22 C          62.5762   83.9467   10.9514 C.ar    1  UNL1       -0.0030
     23 C          63.2834   83.0654   11.9379 C.ar    1  UNL1       -0.0002
     24 C          63.9373   83.6665   13.1466 C.ar    1  UNL1        0.0013
     25 C          63.8841   85.1490   13.3688 C.ar    1  UNL1        0.0146
     26 C          63.1769   86.0303   12.3824 C.ar    1  UNL1        0.0499
@<TRIPOS>BOND
     1     1     2    1
     2     2     3   ar
     3     3    15    1
     4    15    16    1
     5    16    17    2
     6    16    18   am
     7    18    19    1
     8    19    20    1
     9    20    21    1
    10    21    22   ar
    11    22    23   ar
    12    23    24   ar
    13    24    25   ar
    14    25    26   ar
    15     3     4   ar
    16     4     5   ar
    17     5     9    1
    18     9    10    1
    19    10    11    1
    20    11    12    1
    21    12    13    1
    22    13    14    1
    23     5     6   ar
    24     6     7   ar
    25     7     8    2
    26     7     2   ar
    27    26    18    1
    28    14     9    1
    29    26    21   ar
@<TRIPOS>MOLECULE
*****
 26 29 0 0 0
SMALL
GASTEIGER

@<TRIPOS>ATOM
      1 C          60.3261   87.6490    9.4063 C.3     1  UNL1        0.1347
      2 N          61.1717   88.4080   10.3856 N.ar    1  UNL1       -0.2816
      3 C          62.3400   87.7374   11.0453 C.ar    1  UNL1        0.1332
      4 N          63.1856   88.4963   12.0246 N.ar    1  UNL1       -0.2170
      5 C          62.8627   89.9258   12.3442 C.ar    1  UNL1        0.1379
      6 C          61.6944   90.5964   11.6846 C.ar    1  UNL1        0.0950
      7 C          60.8488   89.8375   10.7053 C.ar    1  UNL1        0.2647
      8 O          59.6804   90.5081   10.0456 O.2     1  UNL1       -0.2668
      9 N          63.7083   90.6848   13.3236 N.pl3   1  UNL1       -0.2879
     10 C          63.4874   90.5119   14.7971 C.3     1  UNL1        0.1242
     11 C          64.3330   91.2708   15.7764 C.3     1  UNL1        0.1636
     12 O          65.3994   92.2027   15.2822 O.3     1  UNL1       -0.3501
     13 C          65.6203   92.3757   13.8086 C.3     1  UNL1        0.1636
     14 C          64.7747   91.6167   12.8294 C.3     1  UNL1        0.1242
     15 C          62.6629   86.3078   10.7257 C.3     1  UNL1        0.1494
     16 C          62.3754   85.2313   11.7301 C.2     1  UNL1        0.2370
     17 O          61.7095   85.5762   13.0291 O.2     1  UNL1       -0.2741
     18 N          62.7538   83.8101   11.4353 N.am    1  UNL1       -0.2582
     19 C          63.4215   83.3165   10.1862 C.3     1  UNL1        0.1029
     20 C          63.6112   81.8343   10.3168 C.3     1  UNL1        0.0495
     21 C          63.0608   81.4119   11.6467 C.ar    1  UNL1       -0.0068
     22 C          62.9737   80.0731   12.3175 C.ar    1  UNL1       -0.0030
     23 C          62.3566   79.9554   13.6796 C.ar    1  UNL1       -0.0002
     24 C          61.8266   81.1766   14.3709 C.ar    1  UNL1        0.0013
     25 C          61.9138   82.5154   13.7001 C.ar    1  UNL1        0.0146
     26 C          62.5308   82.6330   12.3380 C.ar    1  UNL1        0.0499
@<TRIPOS>BOND
     1     1     2    1
     2     2     3   ar
     3     3    15    1
     4    15    16    1
     5    16    17    2
     6    16    18   am
     7    18    19    1
     8    19    20    1
     9    20    21    1
    10    21    22   ar
    11    22    23   ar
    12    23    24   ar
    13    24    25   ar
    14    25    26   ar
    15     3     4   ar
    16     4     5   ar
    17     5     9    1
    18     9    10    1
    19    10    11    1
    20    11    12    1
    21    12    13    1
    22    13    14    1
    23     5     6   ar
    24     6     7   ar
    25     7     8    2
    26     7     2   ar
    27    26    18    1
    28    14     9    1
    29    26    21   ar
@<TRIPOS>MOLECULE
*****
 26 29 0 0 0
SMALL
GASTEIGER

@<TRIPOS>ATOM
      1 C          64.3754   91.2139   15.9712 C.3     1  UNL1        0.1347
      2 N          65.0187   91.6251   14.6801 N.ar    1  UNL1       -0.2816
      3 C          64.3314   91.3440   13.3768 C.ar    1  UNL1        0.1332
      4 N          64.9746   91.7552   12.0856 N.ar    1  UNL1       -0.2170
      5 C          66.3052   92.4475   12.0978 C.ar    1  UNL1        0.1379
      6 C          66.9925   92.7286   13.4010 C.ar    1  UNL1        0.0950
      7 C          66.3493   92.3174   14.6922 C.ar    1  UNL1        0.2647
      8 O          67.0367   92.5985   15.9955 O.2     1  UNL1       -0.2668
      9 N          66.9485   92.8587   10.8065 N.pl3   1  UNL1       -0.2879
     10 C          66.5160   94.1214   10.1219 C.3     1  UNL1        0.1242
     11 C          67.1593   94.5325    8.8307 C.3     1  UNL1        0.1636
     12 O          68.2351   93.6811    8.2243 O.3     1  UNL1       -0.3501
     13 C          68.6676   92.4185    8.9089 C.3     1  UNL1        0.1636
     14 C          68.0243   92.0073   10.2000 C.3     1  UNL1        0.1242
     15 C          63.0007   90.6517   13.3646 C.3     1  UNL1        0.1494
     16 C          62.8547   89.3192   12.6912 C.2     1  UNL1        0.2370
     17 O          62.1334   89.2168   11.3800 O.2     1  UNL1       -0.2741
     18 N          63.4298   88.0895   13.3290 N.am    1  UNL1       -0.2582
     19 C          64.1731   88.0368   14.6308 C.3     1  UNL1        0.1029
     20 C          64.5653   86.6112   14.8833 C.3     1  UNL1        0.0495
     21 C          64.0646   85.7828   13.7375 C.ar    1  UNL1       -0.0068
     22 C          64.1569   84.3145   13.4447 C.ar    1  UNL1       -0.0030
     23 C          63.5475   83.7599   12.1914 C.ar    1  UNL1       -0.0002
     24 C          62.8457   84.6735   11.2307 C.ar    1  UNL1        0.0013
     25 C          62.7534   86.1418   11.5235 C.ar    1  UNL1        0.0146
     26 C          63.3628   86.6964   12.7768 C.ar    1  UNL1        0.0499
@<TRIPOS>BOND
     1     1     2    1
     2     2     3   ar
     3     3    15    1
     4    15    16    1
     5    16    17    2
     6    16    18   am
     7    18    19    1
     8    19    20    1
     9    20    21    1
    10    21    22   ar
    11    22    23   ar
    12    23    24   ar
    13    24    25   ar
    14    25    26   ar
    15     3     4   ar
    16     4     5   ar
    17     5     9    1
    18     9    10    1
    19    10    11    1
    20    11    12    1
    21    12    13    1
    22    13    14    1
    23     5     6   ar
    24     6     7   ar
    25     7     8    2
    26     7     2   ar
    27    26    18    1
    28    14     9    1
    29    26    21   ar
@<TRIPOS>MOLECULE
*****
 26 29 0 0 0
SMALL
GASTEIGER

@<TRIPOS>ATOM
      1 C          63.4735   89.0591   16.4033 C.3     1  UNL1        0.1347
      2 N          63.4076   87.6564   15.8760 N.ar    1  UNL1       -0.2816
      3 C          63.6935   87.3851   14.4287 C.ar    1  UNL1        0.1332
      4 N          63.6276   85.9824   13.9013 N.ar    1  UNL1       -0.2170
      5 C          63.2758   84.8511   14.8213 C.ar    1  UNL1        0.1379
      6 C          62.9899   85.1224   16.2685 C.ar    1  UNL1        0.0950
      7 C          63.0558   86.5251   16.7959 C.ar    1  UNL1        0.2647
      8 O          62.7698   86.7965   18.2432 O.2     1  UNL1       -0.2668
      9 N          63.2099   83.4483   14.2939 N.pl3   1  UNL1       -0.2879
     10 C          64.2784   82.9433   13.3702 C.3     1  UNL1        0.1242
     11 C          64.2125   81.5406   12.8429 C.3     1  UNL1        0.1636
     12 O          63.0780   80.6429   13.2393 O.3     1  UNL1       -0.3501
     13 C          62.0095   81.1479   14.1630 C.3     1  UNL1        0.1636
     14 C          62.0754   82.5506   14.6903 C.3     1  UNL1        0.1242
     15 C          64.0454   88.5164   13.5087 C.3     1  UNL1        0.1494
     16 C          63.0962   88.9205   12.4197 C.2     1  UNL1        0.2370
     17 O          62.7139   90.3615   12.2547 O.2     1  UNL1       -0.2741
     18 N          62.5293   87.8836   11.4959 N.am    1  UNL1       -0.2582
     19 C          62.8180   86.4123   11.5387 C.3     1  UNL1        0.1029
     20 C          62.0413   85.7553   10.4363 C.3     1  UNL1        0.0495
     21 C          61.2726   86.8206    9.7123 C.ar    1  UNL1       -0.0068
     22 C          60.3370   86.7629    8.5413 C.ar    1  UNL1       -0.0030
     23 C          59.7029   88.0205    8.0252 C.ar    1  UNL1       -0.0002
     24 C          60.0045   89.3358    8.6801 C.ar    1  UNL1        0.0013
     25 C          60.9401   89.3936    9.8511 C.ar    1  UNL1        0.0146
     26 C          61.5742   88.1360   10.3672 C.ar    1  UNL1        0.0499
@<TRIPOS>BOND
     1     1     2    1
     2     2     3   ar
     3     3    15    1
     4    15    16    1
     5    16    17    2
     6    16    18   am
     7    18    19    1
     8    19    20    1
     9    20    21    1
    10    21    22   ar
    11    22    23   ar
    12    23    24   ar
    13    24    25   ar
    14    25    26   ar
    15     3     4   ar
    16     4     5   ar
    17     5     9    1
    18     9    10    1
    19    10    11    1
    20    11    12    1
    21    12    13    1
    22    13    14    1
    23     5     6   ar
    24     6     7   ar
    25     7     8    2
    26     7     2   ar
    27    26    18    1
    28    14     9    1
    29    26    21   ar
