@<TRIPOS>MOLECULE
*****
 30 33 0 0 0
SMALL
GASTEIGER

@<TRIPOS>ATOM
      1 N          63.9229   88.5580   14.8788 N.3     1  UNL1       -0.2679
      2 C          64.2523   89.7118   13.9786 C.3     1  UNL1        0.0978
      3 C          65.3259   90.6842   14.3681 C.3     1  UNL1        0.0224
      4 C          65.6553   91.8380   13.4678 C.3     1  UNL1        0.0065
      5 C          64.9111   92.0192   12.1782 C.3     1  UNL1        0.0277
      6 C          63.8375   91.0468   11.7887 C.ar    1  UNL1       -0.0073
      7 C          63.0932   91.2280   10.4990 C.ar    1  UNL1       -0.0015
      8 C          62.0197   90.2556   10.1096 C.ar    1  UNL1        0.0203
      9 C          61.6903   89.1018   11.0098 C.ar    1  UNL1        0.0985
     10 N          62.4345   88.9206   12.2995 N.ar    1  UNL1       -0.2471
     11 C          63.5081   89.8930   12.6890 C.ar    1  UNL1        0.0695
     12 C          62.8140   88.6817   15.8813 C.3     1  UNL1        0.0725
     13 C          63.0977   88.4868   17.3414 C.3     1  UNL1        0.0187
     14 C          62.7188   87.2006   18.0138 C.3     1  UNL1        0.0183
     15 N          60.8402   85.9020   16.7750 N.3     1  UNL1       -0.3211
     16 C          62.2758   86.0267   17.1918 C.3     1  UNL1        0.0652
     17 H          60.7182   85.0509   16.2263 H       1  UNL1        0.1189
     18 H          60.5784   86.7106   16.2111 H       1  UNL1        0.1189
     19 C          64.7024   87.2806   14.7766 C.3     1  UNL1        0.0886
     20 C          64.1183   86.1011   14.0571 C.3     1  UNL1        0.0748
     21 C          64.4148   84.7099   14.5333 C.3     1  UNL1        0.0432
     22 C          63.8307   83.5304   13.8138 C.ar    1  UNL1       -0.0234
     23 C          64.1273   82.1393   14.2900 C.ar    1  UNL1       -0.0045
     24 C          63.5432   80.9598   13.5705 C.ar    1  UNL1       -0.0003
     25 C          62.6624   81.1715   12.3749 C.ar    1  UNL1       -0.0003
     26 C          62.3659   82.5626   11.8987 C.ar    1  UNL1       -0.0032
     27 C          62.9500   83.7421   12.6182 C.ar    1  UNL1       -0.0103
     28 C          62.6534   85.1333   12.1420 C.3     1  UNL1        0.0953
     29 N          63.2375   86.3127   12.8615 N.3     1  UNL1       -0.2934
     30 H          62.4533   86.8866   13.1714 H       1  UNL1        0.1236
@<TRIPOS>BOND
     1    15    16    1
     2    16    14    1
     3    14    13    1
     4    13    12    1
     5    12     1    1
     6     1    19    1
     7    20    19    1
     8    20    21    1
     9    21    22    1
    10    22    23   ar
    11    23    24   ar
    12    24    25   ar
    13    25    26   ar
    14    26    27   ar
    15    27    28    1
    16    28    29    1
    17     2     1    1
    18     2     3    1
    19     3     4    1
    20     4     5    1
    21     5     6    1
    22     6     7   ar
    23     7     8   ar
    24     8     9   ar
    25     9    10   ar
    26    10    11   ar
    27    29    20    1
    28    11     2    1
    29    27    22   ar
    30    11     6   ar
    31    15    17    1
    32    15    18    1
    33    29    30    1
@<TRIPOS>MOLECULE
*****
 30 33 0 0 0
SMALL
GASTEIGER

@<TRIPOS>ATOM
      1 N          63.0994   84.1427   13.7678 N.3     1  UNL1       -0.2679
      2 C          63.3214   84.0594   12.2867 C.3     1  UNL1        0.0978
      3 C          64.2242   83.0030   11.7219 C.3     1  UNL1        0.0224
      4 C          64.4463   82.9198   10.2407 C.3     1  UNL1        0.0065
      5 C          63.7656   83.8928    9.3244 C.3     1  UNL1        0.0277
      6 C          62.8628   84.9492    9.8892 C.ar    1  UNL1       -0.0073
      7 C          62.1821   85.9223    8.9728 C.ar    1  UNL1       -0.0015
      8 C          61.2793   86.9787    9.5376 C.ar    1  UNL1        0.0203
      9 C          61.0572   87.0620   11.0188 C.ar    1  UNL1        0.0985
     10 N          61.7379   86.0889   11.9351 N.ar    1  UNL1       -0.2471
     11 C          62.6407   85.0325   11.3703 C.ar    1  UNL1        0.0695
     12 C          61.8337   83.6059   14.3677 C.3     1  UNL1        0.0725
     13 C          61.7243   82.1493   14.7090 C.3     1  UNL1        0.0187
     14 C          61.5614   81.1335   13.6175 C.3     1  UNL1        0.0183
     15 N          63.9243   80.1755   14.1162 N.3     1  UNL1       -0.3211
     16 C          62.5967   80.0650   13.4268 C.3     1  UNL1        0.0652
     17 H          64.5003   79.3687   13.8761 H       1  UNL1        0.1189
     18 H          63.7819   80.2031   15.1259 H       1  UNL1        0.1189
     19 C          64.1429   84.7627   14.6490 C.3     1  UNL1        0.0886
     20 C          63.9408   86.1465   15.1915 C.3     1  UNL1        0.0748
     21 C          64.4802   87.3307   14.4454 C.3     1  UNL1        0.0432
     22 C          64.2780   88.7146   14.9879 C.ar    1  UNL1       -0.0234
     23 C          64.8174   89.8988   14.2419 C.ar    1  UNL1       -0.0045
     24 C          64.6152   91.2825   14.7844 C.ar    1  UNL1       -0.0003
     25 C          63.8736   91.4820   16.0730 C.ar    1  UNL1       -0.0003
     26 C          63.3343   90.2978   16.8190 C.ar    1  UNL1       -0.0032
     27 C          63.5364   88.9140   16.2765 C.ar    1  UNL1       -0.0103
     28 C          62.9970   87.7297   17.0225 C.3     1  UNL1        0.0953
     29 N          63.1992   86.3460   16.4800 N.3     1  UNL1       -0.2934
     30 H          62.2716   85.9416   16.3515 H       1  UNL1        0.1236
@<TRIPOS>BOND
     1    15    16    1
     2    16    14    1
     3    14    13    1
     4    13    12    1
     5    12     1    1
     6     1    19    1
     7    20    19    1
     8    20    21    1
     9    21    22    1
    10    22    23   ar
    11    23    24   ar
    12    24    25   ar
    13    25    26   ar
    14    26    27   ar
    15    27    28    1
    16    28    29    1
    17     2     1    1
    18     2     3    1
    19     3     4    1
    20     4     5    1
    21     5     6    1
    22     6     7   ar
    23     7     8   ar
    24     8     9   ar
    25     9    10   ar
    26    10    11   ar
    27    29    20    1
    28    11     2    1
    29    27    22   ar
    30    11     6   ar
    31    15    17    1
    32    15    18    1
    33    29    30    1
@<TRIPOS>MOLECULE
*****
 30 33 0 0 0
SMALL
GASTEIGER

@<TRIPOS>ATOM
      1 N          61.8990   87.8619   10.9899 N.3     1  UNL1       -0.2679
      2 C          62.6259   89.1678   11.1170 C.3     1  UNL1        0.0978
      3 C          62.5827   90.1625    9.9952 C.3     1  UNL1        0.0224
      4 C          63.3096   91.4685   10.1223 C.3     1  UNL1        0.0065
      5 C          64.0797   91.7797   11.3713 C.3     1  UNL1        0.0277
      6 C          64.1229   90.7849   12.4932 C.ar    1  UNL1       -0.0073
      7 C          64.8930   91.0961   13.7423 C.ar    1  UNL1       -0.0015
      8 C          64.9361   90.1014   14.8642 C.ar    1  UNL1        0.0203
      9 C          64.2092   88.7955   14.7370 C.ar    1  UNL1        0.0985
     10 N          63.4391   88.4843   13.4880 N.ar    1  UNL1       -0.2471
     11 C          63.3959   89.4790   12.3660 C.ar    1  UNL1        0.0695
     12 C          60.4205   87.7995   11.2351 C.3     1  UNL1        0.0725
     13 C          59.4639   88.2446   10.1687 C.3     1  UNL1        0.0187
     14 C          59.8630   88.1703    8.7247 C.3     1  UNL1        0.0183
     15 N          58.4133   86.3903    7.5082 N.3     1  UNL1       -0.3211
     16 C          59.7526   86.8718    7.9819 C.3     1  UNL1        0.0652
     17 H          58.5237   85.4981    7.0263 H       1  UNL1        0.1189
     18 H          58.0128   87.0755    6.8675 H       1  UNL1        0.1189
     19 C          62.6505   86.6184   10.6176 C.3     1  UNL1        0.0886
     20 C          62.6652   85.4434   11.5500 C.3     1  UNL1        0.0748
     21 C          62.7128   84.0491   10.9989 C.3     1  UNL1        0.0432
     22 C          62.7275   82.8742   11.9313 C.ar    1  UNL1       -0.0234
     23 C          62.7750   81.4799   11.3802 C.ar    1  UNL1       -0.0045
     24 C          62.7898   80.3051   12.3126 C.ar    1  UNL1       -0.0003
     25 C          62.7570   80.5244   13.7961 C.ar    1  UNL1       -0.0003
     26 C          62.7094   81.9187   14.3472 C.ar    1  UNL1       -0.0032
     27 C          62.6947   83.0935   13.4148 C.ar    1  UNL1       -0.0103
     28 C          62.6472   84.4879   13.9659 C.3     1  UNL1        0.0953
     29 N          62.6324   85.6628   13.0335 N.3     1  UNL1       -0.2934
     30 H          63.4462   86.2326   13.2649 H       1  UNL1        0.1236
@<TRIPOS>BOND
     1    15    16    1
     2    16    14    1
     3    14    13    1
     4    13    12    1
     5    12     1    1
     6     1    19    1
     7    20    19    1
     8    20    21    1
     9    21    22    1
    10    22    23   ar
    11    23    24   ar
    12    24    25   ar
    13    25    26   ar
    14    26    27   ar
    15    27    28    1
    16    28    29    1
    17     2     1    1
    18     2     3    1
    19     3     4    1
    20     4     5    1
    21     5     6    1
    22     6     7   ar
    23     7     8   ar
    24     8     9   ar
    25     9    10   ar
    26    10    11   ar
    27    29    20    1
    28    11     2    1
    29    27    22   ar
    30    11     6   ar
    31    15    17    1
    32    15    18    1
    33    29    30    1
@<TRIPOS>MOLECULE
*****
 30 33 0 0 0
SMALL
GASTEIGER

@<TRIPOS>ATOM
      1 N          61.4983   87.6243   11.1516 N.3     1  UNL1       -0.2679
      2 C          62.1831   86.4287   10.5585 C.3     1  UNL1        0.0978
      3 C          62.4850   86.3893    9.0898 C.3     1  UNL1        0.0224
      4 C          63.1698   85.1938    8.4967 C.3     1  UNL1        0.0065
      5 C          63.5526   84.0377    9.3723 C.3     1  UNL1        0.0277
      6 C          63.2507   84.0771   10.8411 C.ar    1  UNL1       -0.0073
      7 C          63.6336   82.9210   11.7168 C.ar    1  UNL1       -0.0015
      8 C          63.3316   82.9604   13.1855 C.ar    1  UNL1        0.0203
      9 C          62.6468   84.1559   13.7786 C.ar    1  UNL1        0.0985
     10 N          62.2640   85.3120   12.9030 N.ar    1  UNL1       -0.2471
     11 C          62.5659   85.2726   11.4341 C.ar    1  UNL1        0.0695
     12 C          60.1360   88.0249   10.6681 C.3     1  UNL1        0.0725
     13 C          59.9939   89.1026    9.6344 C.3     1  UNL1        0.0187
     14 C          59.8004   88.7378    8.1924 C.3     1  UNL1        0.0183
     15 N          58.2623   86.6782    7.8151 N.3     1  UNL1       -0.3211
     16 C          59.6270   87.3008    7.7991 C.3     1  UNL1        0.0652
     17 H          58.3297   85.7037    7.5216 H       1  UNL1        0.1189
     18 H          57.6501   87.1845    7.1753 H       1  UNL1        0.1189
     19 C          62.1757   88.4192   12.2282 C.3     1  UNL1        0.0886
     20 C          62.9712   89.6399   11.8712 C.3     1  UNL1        0.0748
     21 C          63.8769   90.2687   12.8882 C.3     1  UNL1        0.0432
     22 C          64.6723   91.4894   12.5313 C.ar    1  UNL1       -0.0234
     23 C          65.5780   92.1182   13.5483 C.ar    1  UNL1       -0.0045
     24 C          66.3734   93.3388   13.1914 C.ar    1  UNL1       -0.0003
     25 C          66.2631   93.9306   11.8174 C.ar    1  UNL1       -0.0003
     26 C          65.3575   93.3017   10.8004 C.ar    1  UNL1       -0.0032
     27 C          64.5621   92.0811   11.1574 C.ar    1  UNL1       -0.0103
     28 C          63.6564   91.4522   10.1404 C.3     1  UNL1        0.0953
     29 N          62.8610   90.2316   10.4973 N.3     1  UNL1       -0.2934
     30 H          63.1319   89.5008    9.8394 H       1  UNL1        0.1236
@<TRIPOS>BOND
     1    15    16    1
     2    16    14    1
     3    14    13    1
     4    13    12    1
     5    12     1    1
     6     1    19    1
     7    20    19    1
     8    20    21    1
     9    21    22    1
    10    22    23   ar
    11    23    24   ar
    12    24    25   ar
    13    25    26   ar
    14    26    27   ar
    15    27    28    1
    16    28    29    1
    17     2     1    1
    18     2     3    1
    19     3     4    1
    20     4     5    1
    21     5     6    1
    22     6     7   ar
    23     7     8   ar
    24     8     9   ar
    25     9    10   ar
    26    10    11   ar
    27    29    20    1
    28    11     2    1
    29    27    22   ar
    30    11     6   ar
    31    15    17    1
    32    15    18    1
    33    29    30    1
@<TRIPOS>MOLECULE
*****
 30 33 0 0 0
SMALL
GASTEIGER

@<TRIPOS>ATOM
      1 N          66.6326   92.3849   12.5076 N.3     1  UNL1       -0.2679
      2 C          67.1728   92.7728   11.1631 C.3     1  UNL1        0.0978
      3 C          68.0030   91.8001   10.3793 C.3     1  UNL1        0.0224
      4 C          68.5431   92.1880    9.0347 C.3     1  UNL1        0.0065
      5 C          68.2531   93.5487    8.4741 C.3     1  UNL1        0.0277
      6 C          67.4229   94.5215    9.2579 C.ar    1  UNL1       -0.0073
      7 C          67.1328   95.8822    8.6973 C.ar    1  UNL1       -0.0015
      8 C          66.3027   96.8550    9.4812 C.ar    1  UNL1        0.0203
      9 C          65.7625   96.4671   10.8257 C.ar    1  UNL1        0.0985
     10 N          66.0525   95.1064   11.3863 N.ar    1  UNL1       -0.2471
     11 C          66.8827   94.1335   10.6025 C.ar    1  UNL1        0.0695
     12 C          67.5732   92.0064   13.6130 C.3     1  UNL1        0.0725
     13 C          67.0316   91.5546   14.9369 C.3     1  UNL1        0.0187
     14 C          66.6053   92.5674   15.9580 C.3     1  UNL1        0.0183
     15 N          64.2424   91.4907   16.0446 N.3     1  UNL1       -0.3211
     16 C          65.1964   92.5664   16.4725 C.3     1  UNL1        0.0652
     17 H          63.3362   91.6443   16.4869 H       1  UNL1        0.1189
     18 H          64.6079   90.5808   16.3254 H       1  UNL1        0.1189
     19 C          65.1518   92.3755   12.7467 C.3     1  UNL1        0.0886
     20 C          64.3464   91.1542   12.4155 C.3     1  UNL1        0.0748
     21 C          63.4733   91.1396   11.1959 C.3     1  UNL1        0.0432
     22 C          62.6678   89.9183   10.8647 C.ar    1  UNL1       -0.0234
     23 C          61.7947   89.9037    9.6451 C.ar    1  UNL1       -0.0045
     24 C          60.9892   88.6824    9.3140 C.ar    1  UNL1       -0.0003
     25 C          61.0569   87.4757   10.2024 C.ar    1  UNL1       -0.0003
     26 C          61.9300   87.4903   11.4220 C.ar    1  UNL1       -0.0032
     27 C          62.7354   88.7116   11.7531 C.ar    1  UNL1       -0.0103
     28 C          63.6086   88.7262   12.9728 C.3     1  UNL1        0.0953
     29 N          64.4140   89.9475   13.3039 N.3     1  UNL1       -0.2934
     30 H          65.3914   89.6569   13.3320 H       1  UNL1        0.1236
@<TRIPOS>BOND
     1    15    16    1
     2    16    14    1
     3    14    13    1
     4    13    12    1
     5    12     1    1
     6     1    19    1
     7    20    19    1
     8    20    21    1
     9    21    22    1
    10    22    23   ar
    11    23    24   ar
    12    24    25   ar
    13    25    26   ar
    14    26    27   ar
    15    27    28    1
    16    28    29    1
    17     2     1    1
    18     2     3    1
    19     3     4    1
    20     4     5    1
    21     5     6    1
    22     6     7   ar
    23     7     8   ar
    24     8     9   ar
    25     9    10   ar
    26    10    11   ar
    27    29    20    1
    28    11     2    1
    29    27    22   ar
    30    11     6   ar
    31    15    17    1
    32    15    18    1
    33    29    30    1
@<TRIPOS>MOLECULE
*****
 30 33 0 0 0
SMALL
GASTEIGER

@<TRIPOS>ATOM
      1 N          62.2331   86.0520   10.3840 N.3     1  UNL1       -0.2679
      2 C          62.9269   84.7769   10.7618 C.3     1  UNL1        0.0978
      3 C          63.6240   83.9629    9.7123 C.3     1  UNL1        0.0224
      4 C          64.3178   82.6878   10.0901 C.3     1  UNL1        0.0065
      5 C          64.3146   82.2267   11.5175 C.3     1  UNL1        0.0277
      6 C          63.6176   83.0407   12.5670 C.ar    1  UNL1       -0.0073
      7 C          63.6143   82.5796   13.9944 C.ar    1  UNL1       -0.0015
      8 C          62.9173   83.3936   15.0439 C.ar    1  UNL1        0.0203
      9 C          62.2234   84.6687   14.6661 C.ar    1  UNL1        0.0985
     10 N          62.2266   85.1298   13.2387 N.ar    1  UNL1       -0.2471
     11 C          62.9237   84.3158   12.1891 C.ar    1  UNL1        0.0695
     12 C          61.9574   86.3568    8.9414 C.3     1  UNL1        0.0725
     13 C          60.5883   86.1248    8.3741 C.3     1  UNL1        0.0187
     14 C          59.5179   87.1607    8.5507 C.3     1  UNL1        0.0183
     15 N          60.2063   89.6621    8.6885 N.3     1  UNL1       -0.3211
     16 C          59.6620   88.5059    7.9030 C.3     1  UNL1        0.0652
     17 H          60.2349   90.4921    8.0963 H       1  UNL1        0.1189
     18 H          61.1488   89.4412    9.0098 H       1  UNL1        0.1189
     19 C          61.8149   87.0222   11.4487 C.3     1  UNL1        0.0886
     20 C          62.5495   88.3199   11.6114 C.3     1  UNL1        0.0748
     21 C          63.3570   88.5744   12.8496 C.3     1  UNL1        0.0432
     22 C          64.0917   89.8721   13.0123 C.ar    1  UNL1       -0.0234
     23 C          64.8992   90.1266   14.2504 C.ar    1  UNL1       -0.0045
     24 C          65.6338   91.4242   14.4131 C.ar    1  UNL1       -0.0003
     25 C          65.5609   92.4673   13.3376 C.ar    1  UNL1       -0.0003
     26 C          64.7534   92.2127   12.0994 C.ar    1  UNL1       -0.0032
     27 C          64.0188   90.9151   11.9368 C.ar    1  UNL1       -0.0103
     28 C          63.2112   90.6605   10.6986 C.3     1  UNL1        0.0953
     29 N          62.4766   89.3629   10.5359 N.3     1  UNL1       -0.2934
     30 H          62.8286   88.9304    9.6819 H       1  UNL1        0.1236
@<TRIPOS>BOND
     1    15    16    1
     2    16    14    1
     3    14    13    1
     4    13    12    1
     5    12     1    1
     6     1    19    1
     7    20    19    1
     8    20    21    1
     9    21    22    1
    10    22    23   ar
    11    23    24   ar
    12    24    25   ar
    13    25    26   ar
    14    26    27   ar
    15    27    28    1
    16    28    29    1
    17     2     1    1
    18     2     3    1
    19     3     4    1
    20     4     5    1
    21     5     6    1
    22     6     7   ar
    23     7     8   ar
    24     8     9   ar
    25     9    10   ar
    26    10    11   ar
    27    29    20    1
    28    11     2    1
    29    27    22   ar
    30    11     6   ar
    31    15    17    1
    32    15    18    1
    33    29    30    1
@<TRIPOS>MOLECULE
*****
 30 33 0 0 0
SMALL
GASTEIGER

@<TRIPOS>ATOM
      1 N          62.1039   86.9095   10.1859 N.3     1  UNL1       -0.2679
      2 C          62.4635   88.2626   10.7244 C.3     1  UNL1        0.0978
      3 C          62.1800   89.4921    9.9134 C.3     1  UNL1        0.0224
      4 C          62.5396   90.8452   10.4518 C.3     1  UNL1        0.0065
      5 C          63.1827   90.9687   11.8013 C.3     1  UNL1        0.0277
      6 C          63.4662   89.7391   12.6123 C.ar    1  UNL1       -0.0073
      7 C          64.1094   89.8626   13.9618 C.ar    1  UNL1       -0.0015
      8 C          64.3929   88.6330   14.7728 C.ar    1  UNL1        0.0203
      9 C          64.0333   87.2800   14.2344 C.ar    1  UNL1        0.0985
     10 N          63.3902   87.1565   12.8849 N.ar    1  UNL1       -0.2471
     11 C          63.1066   88.3861   12.0738 C.ar    1  UNL1        0.0695
     12 C          60.6656   86.5525    9.9542 C.3     1  UNL1        0.0725
     13 C          60.1765   86.2741    8.5638 C.3     1  UNL1        0.0187
     14 C          59.1326   87.1560    7.9453 C.3     1  UNL1        0.0183
     15 N          58.8675   89.2140    6.3818 N.3     1  UNL1       -0.3211
     16 C          59.4591   88.5801    7.6059 C.3     1  UNL1        0.0652
     17 H          59.1941   90.1773    6.3062 H       1  UNL1        0.1189
     18 H          57.8499   89.2045    6.4521 H       1  UNL1        0.1189
     19 C          63.1826   85.9135    9.8791 C.3     1  UNL1        0.0886
     20 C          63.1320   84.5424   10.4855 C.3     1  UNL1        0.0748
     21 C          62.5657   84.3512   11.8613 C.3     1  UNL1        0.0432
     22 C          62.5151   82.9801   12.4677 C.ar    1  UNL1       -0.0234
     23 C          61.9488   82.7890   13.8434 C.ar    1  UNL1       -0.0045
     24 C          61.8982   81.4179   14.4498 C.ar    1  UNL1       -0.0003
     25 C          62.4138   80.2381   13.6803 C.ar    1  UNL1       -0.0003
     26 C          62.9801   80.4292   12.3046 C.ar    1  UNL1       -0.0032
     27 C          63.0307   81.8003   11.6983 C.ar    1  UNL1       -0.0103
     28 C          63.5970   81.9915   10.3224 C.3     1  UNL1        0.0953
     29 N          63.6476   83.3625    9.7161 N.3     1  UNL1       -0.2934
     30 H          63.1133   83.3206    8.8483 H       1  UNL1        0.1236
@<TRIPOS>BOND
     1    15    16    1
     2    16    14    1
     3    14    13    1
     4    13    12    1
     5    12     1    1
     6     1    19    1
     7    20    19    1
     8    20    21    1
     9    21    22    1
    10    22    23   ar
    11    23    24   ar
    12    24    25   ar
    13    25    26   ar
    14    26    27   ar
    15    27    28    1
    16    28    29    1
    17     2     1    1
    18     2     3    1
    19     3     4    1
    20     4     5    1
    21     5     6    1
    22     6     7   ar
    23     7     8   ar
    24     8     9   ar
    25     9    10   ar
    26    10    11   ar
    27    29    20    1
    28    11     2    1
    29    27    22   ar
    30    11     6   ar
    31    15    17    1
    32    15    18    1
    33    29    30    1
@<TRIPOS>MOLECULE
*****
 30 33 0 0 0
SMALL
GASTEIGER

@<TRIPOS>ATOM
      1 N          62.9818   89.9074   12.8829 N.3     1  UNL1       -0.2679
      2 C          63.8480   90.9759   12.2846 C.3     1  UNL1        0.0978
      3 C          63.7648   91.2744   10.8170 C.3     1  UNL1        0.0224
      4 C          64.6311   92.3429   10.2187 C.3     1  UNL1        0.0065
      5 C          65.5806   93.1128   11.0880 C.3     1  UNL1        0.0277
      6 C          65.6638   92.8142   12.5556 C.ar    1  UNL1       -0.0073
      7 C          66.6133   93.5841   13.4250 C.ar    1  UNL1       -0.0015
      8 C          66.6965   93.2855   14.8926 C.ar    1  UNL1        0.0203
      9 C          65.8303   92.2171   15.4909 C.ar    1  UNL1        0.0985
     10 N          64.8808   91.4472   14.6216 N.ar    1  UNL1       -0.2471
     11 C          64.7975   91.7457   13.1539 C.ar    1  UNL1        0.0695
     12 C          63.5301   89.0077   13.9505 C.3     1  UNL1        0.0725
     13 C          63.8387   87.5735   13.6371 C.3     1  UNL1        0.0187
     14 C          64.4983   86.7058   14.6676 C.3     1  UNL1        0.0183
     15 N          65.8981   84.5176   14.6207 N.3     1  UNL1       -0.3211
     16 C          64.5849   85.2235   14.4556 C.3     1  UNL1        0.0652
     17 H          65.7738   83.5215   14.4400 H       1  UNL1        0.1189
     18 H          66.2382   84.6506   15.5731 H       1  UNL1        0.1189
     19 C          61.5671   89.7387   12.4137 C.3     1  UNL1        0.0886
     20 C          61.2676   88.8606   11.2350 C.3     1  UNL1        0.0748
     21 C          62.2934   87.8790   10.7511 C.3     1  UNL1        0.0432
     22 C          61.9938   87.0009    9.5724 C.ar    1  UNL1       -0.0234
     23 C          63.0196   86.0194    9.0884 C.ar    1  UNL1       -0.0045
     24 C          62.7200   85.1413    7.9098 C.ar    1  UNL1       -0.0003
     25 C          61.3946   85.2448    7.2151 C.ar    1  UNL1       -0.0003
     26 C          60.3688   86.2264    7.6990 C.ar    1  UNL1       -0.0032
     27 C          60.6684   87.1044    8.8776 C.ar    1  UNL1       -0.0103
     28 C          59.6426   88.0861    9.3616 C.3     1  UNL1        0.0953
     29 N          59.9422   88.9641   10.5403 N.3     1  UNL1       -0.2934
     30 H          59.2266   88.7707   11.2409 H       1  UNL1        0.1236
@<TRIPOS>BOND
     1    15    16    1
     2    16    14    1
     3    14    13    1
     4    13    12    1
     5    12     1    1
     6     1    19    1
     7    20    19    1
     8    20    21    1
     9    21    22    1
    10    22    23   ar
    11    23    24   ar
    12    24    25   ar
    13    25    26   ar
    14    26    27   ar
    15    27    28    1
    16    28    29    1
    17     2     1    1
    18     2     3    1
    19     3     4    1
    20     4     5    1
    21     5     6    1
    22     6     7   ar
    23     7     8   ar
    24     8     9   ar
    25     9    10   ar
    26    10    11   ar
    27    29    20    1
    28    11     2    1
    29    27    22   ar
    30    11     6   ar
    31    15    17    1
    32    15    18    1
    33    29    30    1
@<TRIPOS>MOLECULE
*****
 30 33 0 0 0
SMALL
GASTEIGER

@<TRIPOS>ATOM
      1 N          62.3207   87.1924   11.6214 N.3     1  UNL1       -0.2679
      2 C          62.6803   88.6324   11.4043 C.3     1  UNL1        0.0978
      3 C          62.2861   89.3201   10.1309 C.3     1  UNL1        0.0224
      4 C          62.6456   90.7601    9.9138 C.3     1  UNL1        0.0065
      5 C          63.3993   91.5124   10.9702 C.3     1  UNL1        0.0277
      6 C          63.7936   90.8247   12.2436 C.ar    1  UNL1       -0.0073
      7 C          64.5473   91.5770   13.3000 C.ar    1  UNL1       -0.0015
      8 C          64.9416   90.8893   14.5734 C.ar    1  UNL1        0.0203
      9 C          64.5820   89.4493   14.7905 C.ar    1  UNL1        0.0985
     10 N          63.8283   88.6970   13.7341 N.ar    1  UNL1       -0.2471
     11 C          63.4340   89.3847   12.4606 C.ar    1  UNL1        0.0695
     12 C          61.0870   86.6234   10.9858 C.3     1  UNL1        0.0725
     13 C          61.1601   86.0198    9.6144 C.3     1  UNL1        0.0187
     14 C          62.4193   86.1398    8.8083 C.3     1  UNL1        0.0183
     15 N          61.9200   84.7782    6.6526 N.3     1  UNL1       -0.3211
     16 C          62.7948   85.0590    7.8384 C.3     1  UNL1        0.0652
     17 H          62.3235   84.0183    6.1048 H       1  UNL1        0.1189
     18 H          61.8523   85.6156    6.0742 H       1  UNL1        0.1189
     19 C          63.1949   86.3215   12.4741 C.3     1  UNL1        0.0886
     20 C          63.1209   84.8288   12.3448 C.3     1  UNL1        0.0748
     21 C          62.4361   84.0172   13.4041 C.3     1  UNL1        0.0432
     22 C          62.3621   82.5246   13.2748 C.ar    1  UNL1       -0.0234
     23 C          61.6773   81.7130   14.3341 C.ar    1  UNL1       -0.0045
     24 C          61.6034   80.2205   14.2047 C.ar    1  UNL1       -0.0003
     25 C          62.2142   79.5395   13.0159 C.ar    1  UNL1       -0.0003
     26 C          62.8991   80.3511   11.9566 C.ar    1  UNL1       -0.0032
     27 C          62.9730   81.8437   12.0860 C.ar    1  UNL1       -0.0103
     28 C          63.6579   82.6553   11.0266 C.3     1  UNL1        0.0953
     29 N          63.7318   84.1479   11.1560 N.3     1  UNL1       -0.2934
     30 H          63.2800   84.5379   10.3289 H       1  UNL1        0.1236
@<TRIPOS>BOND
     1    15    16    1
     2    16    14    1
     3    14    13    1
     4    13    12    1
     5    12     1    1
     6     1    19    1
     7    20    19    1
     8    20    21    1
     9    21    22    1
    10    22    23   ar
    11    23    24   ar
    12    24    25   ar
    13    25    26   ar
    14    26    27   ar
    15    27    28    1
    16    28    29    1
    17     2     1    1
    18     2     3    1
    19     3     4    1
    20     4     5    1
    21     5     6    1
    22     6     7   ar
    23     7     8   ar
    24     8     9   ar
    25     9    10   ar
    26    10    11   ar
    27    29    20    1
    28    11     2    1
    29    27    22   ar
    30    11     6   ar
    31    15    17    1
    32    15    18    1
    33    29    30    1
