@<TRIPOS>MOLECULE
*****
 36 40 0 0 0
SMALL
GASTEIGER

@<TRIPOS>ATOM
      1 N          65.2041   92.3731   12.0281 N.3     1  UNL1       -0.2679
      2 C          66.2826   92.7385   11.0517 C.3     1  UNL1        0.0978
      3 C          67.3305   91.7316   10.6801 C.3     1  UNL1        0.0224
      4 C          68.4090   92.0971    9.7036 C.3     1  UNL1        0.0065
      5 C          68.4395   93.4694    9.0988 C.3     1  UNL1        0.0277
      6 C          67.3916   94.4763    9.4704 C.ar    1  UNL1       -0.0073
      7 C          67.4221   95.8485    8.8656 C.ar    1  UNL1       -0.0015
      8 C          66.3742   96.8554    9.2371 C.ar    1  UNL1        0.0203
      9 C          65.2958   96.4900   10.2135 C.ar    1  UNL1        0.0985
     10 N          65.2652   95.1178   10.8183 N.ar    1  UNL1       -0.2471
     11 C          66.3131   94.1109   10.4468 C.ar    1  UNL1        0.0695
     12 C          65.4972   92.3602   13.4992 C.3     1  UNL1        0.0886
     13 C          63.0877   86.7685   16.6893 C.ar    1  UNL1       -0.0003
     14 C          63.8513   86.3469   15.4691 C.ar    1  UNL1       -0.0003
     15 C          64.4859   87.3809   14.5870 C.ar    1  UNL1       -0.0045
     16 C          64.3569   88.8365   14.9251 C.ar    1  UNL1       -0.0234
     17 C          63.5933   89.2582   16.1454 C.ar    1  UNL1       -0.0103
     18 C          62.9587   88.2242   17.0275 C.ar    1  UNL1       -0.0032
     19 C          63.4643   90.7139   16.4836 C.3     1  UNL1        0.0953
     20 N          64.0989   91.7479   15.6016 N.3     1  UNL1       -0.2934
     21 C          64.8626   91.3262   14.3812 C.3     1  UNL1        0.0748
     22 C          64.9915   89.8705   14.0431 C.3     1  UNL1        0.0432
     23 H          64.7466   92.2763   16.1862 H       1  UNL1        0.1236
     24 C          63.8326   92.0206   11.5335 C.3     1  UNL1        0.0725
     25 C          63.6684   91.0250   10.4237 C.3     1  UNL1        0.0188
     26 C          62.5202   90.0601   10.4455 C.3     1  UNL1        0.0185
     27 C          61.8663   89.7018   11.7472 C.3     1  UNL1        0.0686
     28 N          60.9856   88.4907   11.8357 N.3     1  UNL1       -0.2975
     29 H          60.0682   88.8155   12.1410 H       1  UNL1        0.1232
     30 C          60.7611   87.6364   10.6234 C.3     1  UNL1        0.0685
     31 C          61.6669   86.4731   10.3474 C.3     1  UNL1        0.0158
     32 C          62.0135   85.5149   11.4481 C.3     1  UNL1        0.0014
     33 C          62.9194   84.3515   11.1721 C.3     1  UNL1        0.0000
     34 C          63.4786   84.1465    9.7954 C.3     1  UNL1        0.0000
     35 C          63.1320   85.1048    8.6948 C.3     1  UNL1        0.0000
     36 C          62.2261   86.2681    8.9708 C.3     1  UNL1        0.0014
@<TRIPOS>BOND
     1    13    14   ar
     2    14    15   ar
     3    15    16   ar
     4    16    17   ar
     5    17    18   ar
     6    17    19    1
     7    19    20    1
     8    20    21    1
     9    21    12    1
    10    12     1    1
    11     1    24    1
    12    24    25    1
    13    25    26    1
    14    26    27    1
    15    27    28    1
    16    28    30    1
    17    30    31    1
    18    31    32    1
    19    32    33    1
    20    33    34    1
    21    34    35    1
    22    35    36    1
    23     2     1    1
    24     2     3    1
    25     3     4    1
    26     4     5    1
    27     5     6    1
    28     6     7   ar
    29     7     8   ar
    30     8     9   ar
    31     9    10   ar
    32    10    11   ar
    33    21    22    1
    34    18    13   ar
    35    36    31    1
    36    11     2    1
    37    22    16    1
    38    11     6   ar
    39    20    23    1
    40    28    29    1
@<TRIPOS>MOLECULE
*****
 36 40 0 0 0
SMALL
GASTEIGER

@<TRIPOS>ATOM
      1 N          63.2385   89.8587   13.0571 N.3     1  UNL1       -0.2679
      2 C          64.0162   90.9655   12.4091 C.3     1  UNL1        0.0978
      3 C          63.8682   91.2253   10.9392 C.3     1  UNL1        0.0224
      4 C          64.6459   92.3323   10.2912 C.3     1  UNL1        0.0065
      5 C          65.5716   93.1794   11.1131 C.3     1  UNL1        0.0277
      6 C          65.7196   92.9195   12.5830 C.ar    1  UNL1       -0.0073
      7 C          66.6453   93.7666   13.4048 C.ar    1  UNL1       -0.0015
      8 C          66.7933   93.5068   14.8747 C.ar    1  UNL1        0.0203
      9 C          66.0156   92.3999   15.5228 C.ar    1  UNL1        0.0985
     10 N          65.0899   91.5529   14.7009 N.ar    1  UNL1       -0.2471
     11 C          64.9419   91.8127   13.2310 C.ar    1  UNL1        0.0695
     12 C          61.7925   89.6566   12.7128 C.3     1  UNL1        0.0886
     13 C          61.1999   85.4647    7.2974 C.ar    1  UNL1       -0.0003
     14 C          62.4948   85.1804    7.9989 C.ar    1  UNL1       -0.0003
     15 C          62.8724   85.9620    9.2223 C.ar    1  UNL1       -0.0045
     16 C          61.9549   87.0278    9.7442 C.ar    1  UNL1       -0.0234
     17 C          60.6600   87.3120    9.0426 C.ar    1  UNL1       -0.0103
     18 C          60.2824   86.5305    7.8192 C.ar    1  UNL1       -0.0032
     19 C          59.7424   88.3778    9.5645 C.3     1  UNL1        0.0953
     20 N          60.1199   89.1594   10.7878 N.3     1  UNL1       -0.2934
     21 C          61.4150   88.8751   11.4894 C.3     1  UNL1        0.0748
     22 C          62.3324   87.8093   10.9676 C.3     1  UNL1        0.0432
     23 H          59.3768   89.0139   11.4712 H       1  UNL1        0.1236
     24 C          63.9067   88.9538   14.0494 C.3     1  UNL1        0.0725
     25 C          63.9374   87.4730   13.8122 C.3     1  UNL1        0.0188
     26 C          64.7108   86.5810   14.7375 C.3     1  UNL1        0.0185
     27 C          63.9856   85.6277   15.6405 C.3     1  UNL1        0.0686
     28 N          64.1477   84.1482   15.4546 N.3     1  UNL1       -0.2975
     29 H          64.2470   83.7435   16.3856 H       1  UNL1        0.1232
     30 C          63.0832   83.3596   14.7510 C.3     1  UNL1        0.0685
     31 C          63.3020   82.8951   13.3416 C.3     1  UNL1        0.0158
     32 C          64.2145   83.6630   12.4320 C.3     1  UNL1        0.0014
     33 C          64.4333   83.1986   11.0226 C.3     1  UNL1        0.0000
     34 C          63.7395   81.9662   10.5228 C.3     1  UNL1        0.0000
     35 C          62.8269   81.1983   11.4324 C.3     1  UNL1        0.0000
     36 C          62.6082   81.6627   12.8418 C.3     1  UNL1        0.0014
@<TRIPOS>BOND
     1    13    14   ar
     2    14    15   ar
     3    15    16   ar
     4    16    17   ar
     5    17    18   ar
     6    17    19    1
     7    19    20    1
     8    20    21    1
     9    21    12    1
    10    12     1    1
    11     1    24    1
    12    24    25    1
    13    25    26    1
    14    26    27    1
    15    27    28    1
    16    28    30    1
    17    30    31    1
    18    31    32    1
    19    32    33    1
    20    33    34    1
    21    34    35    1
    22    35    36    1
    23     2     1    1
    24     2     3    1
    25     3     4    1
    26     4     5    1
    27     5     6    1
    28     6     7   ar
    29     7     8   ar
    30     8     9   ar
    31     9    10   ar
    32    10    11   ar
    33    21    22    1
    34    18    13   ar
    35    36    31    1
    36    11     2    1
    37    22    16    1
    38    11     6   ar
    39    20    23    1
    40    28    29    1
@<TRIPOS>MOLECULE
*****
 36 40 0 0 0
SMALL
GASTEIGER

@<TRIPOS>ATOM
      1 N          63.7423   89.9768   13.4967 N.3     1  UNL1       -0.2679
      2 C          64.6702   91.1077   13.8281 C.3     1  UNL1        0.0978
      3 C          65.1498   91.2962   15.2368 C.3     1  UNL1        0.0224
      4 C          66.0778   92.4272   15.5682 C.3     1  UNL1        0.0065
      5 C          66.5262   93.3696   14.4909 C.3     1  UNL1        0.0277
      6 C          66.0467   93.1811   13.0821 C.ar    1  UNL1       -0.0073
      7 C          66.4951   94.1235   12.0048 C.ar    1  UNL1       -0.0015
      8 C          66.0156   93.9350   10.5961 C.ar    1  UNL1        0.0203
      9 C          65.0876   92.8041   10.2647 C.ar    1  UNL1        0.0985
     10 N          64.6392   91.8617   11.3420 N.ar    1  UNL1       -0.2471
     11 C          65.1187   92.0502   12.7507 C.ar    1  UNL1        0.0695
     12 C          62.3288   90.2627   13.0839 C.3     1  UNL1        0.0886
     13 C          60.6264   86.3358    7.7052 C.ar    1  UNL1       -0.0003
     14 C          61.7953   85.7181    8.4137 C.ar    1  UNL1       -0.0003
     15 C          62.3696   86.3799    9.6311 C.ar    1  UNL1       -0.0045
     16 C          61.7749   87.6595   10.1401 C.ar    1  UNL1       -0.0234
     17 C          60.6060   88.2772    9.4316 C.ar    1  UNL1       -0.0103
     18 C          60.0317   87.6153    8.2142 C.ar    1  UNL1       -0.0032
     19 C          60.0113   89.5568    9.9406 C.3     1  UNL1        0.0953
     20 N          60.5855   90.2186   11.1580 N.3     1  UNL1       -0.2934
     21 C          61.7545   89.6009   11.8665 C.3     1  UNL1        0.0748
     22 C          62.3492   88.3213   11.3575 C.3     1  UNL1        0.0432
     23 H          59.8302   90.2866   11.8401 H       1  UNL1        0.1236
     24 C          64.2278   88.5598   13.5781 C.3     1  UNL1        0.0725
     25 C          64.0855   87.7906   14.8579 C.3     1  UNL1        0.0188
     26 C          64.6812   86.4193   14.9790 C.3     1  UNL1        0.0185
     27 C          63.8878   85.3093   15.6022 C.3     1  UNL1        0.0686
     28 N          62.5889   84.8790   14.9875 N.3     1  UNL1       -0.2975
     29 H          62.4495   85.4572   14.1588 H       1  UNL1        0.1232
     30 C          62.3977   83.4544   14.5586 C.3     1  UNL1        0.0685
     31 C          62.8627   83.0103   13.2034 C.3     1  UNL1        0.0158
     32 C          62.5076   81.6428   12.6996 C.3     1  UNL1        0.0014
     33 C          62.9726   81.1987   11.3444 C.3     1  UNL1        0.0000
     34 C          63.7926   82.1221   10.4930 C.3     1  UNL1        0.0000
     35 C          64.1477   83.4895   10.9968 C.3     1  UNL1        0.0000
     36 C          63.6827   83.9337   12.3520 C.3     1  UNL1        0.0014
@<TRIPOS>BOND
     1    13    14   ar
     2    14    15   ar
     3    15    16   ar
     4    16    17   ar
     5    17    18   ar
     6    17    19    1
     7    19    20    1
     8    20    21    1
     9    21    12    1
    10    12     1    1
    11     1    24    1
    12    24    25    1
    13    25    26    1
    14    26    27    1
    15    27    28    1
    16    28    30    1
    17    30    31    1
    18    31    32    1
    19    32    33    1
    20    33    34    1
    21    34    35    1
    22    35    36    1
    23     2     1    1
    24     2     3    1
    25     3     4    1
    26     4     5    1
    27     5     6    1
    28     6     7   ar
    29     7     8   ar
    30     8     9   ar
    31     9    10   ar
    32    10    11   ar
    33    21    22    1
    34    18    13   ar
    35    36    31    1
    36    11     2    1
    37    22    16    1
    38    11     6   ar
    39    20    23    1
    40    28    29    1
@<TRIPOS>MOLECULE
*****
 36 40 0 0 0
SMALL
GASTEIGER

@<TRIPOS>ATOM
      1 N          63.3204   88.8666   13.5522 N.3     1  UNL1       -0.2679
      2 C          62.8735   89.1700   12.1529 C.3     1  UNL1        0.0978
      3 C          62.9718   90.5690   11.6209 C.3     1  UNL1        0.0224
      4 C          62.5249   90.8724   10.2215 C.3     1  UNL1        0.0065
      5 C          61.9796   89.7768    9.3542 C.3     1  UNL1        0.0277
      6 C          61.8813   88.3778    9.8862 C.ar    1  UNL1       -0.0073
      7 C          61.3360   87.2822    9.0189 C.ar    1  UNL1       -0.0015
      8 C          61.2377   85.8832    9.5509 C.ar    1  UNL1        0.0203
      9 C          61.6846   85.5797   10.9502 C.ar    1  UNL1        0.0985
     10 N          62.2299   86.6753   11.8175 N.ar    1  UNL1       -0.2471
     11 C          62.3282   88.0744   11.2855 C.ar    1  UNL1        0.0695
     12 C          63.1196   89.8797   14.6401 C.3     1  UNL1        0.0886
     13 C          68.9430   93.4216   15.5304 C.ar    1  UNL1       -0.0003
     14 C          69.0946   92.5180   14.3428 C.ar    1  UNL1       -0.0003
     15 C          67.9602   91.6290   13.9272 C.ar    1  UNL1       -0.0045
     16 C          66.6742   91.6434   14.6992 C.ar    1  UNL1       -0.0234
     17 C          66.5227   92.5470   15.8869 C.ar    1  UNL1       -0.0103
     18 C          67.6571   93.4360   16.3025 C.ar    1  UNL1       -0.0032
     19 C          65.2367   92.5615   16.6590 C.3     1  UNL1        0.0953
     20 N          64.1023   91.6724   16.2434 N.3     1  UNL1       -0.2934
     21 C          64.2539   90.7688   15.0557 C.3     1  UNL1        0.0748
     22 C          65.5399   90.7543   14.2836 C.3     1  UNL1        0.0432
     23 H          63.3066   92.2808   16.0508 H       1  UNL1        0.1236
     24 C          63.9683   87.5500   13.8638 C.3     1  UNL1        0.0725
     25 C          64.4582   87.2653   15.2526 C.3     1  UNL1        0.0188
     26 C          63.6841   86.3425   16.1465 C.3     1  UNL1        0.0185
     27 C          63.2828   84.9834   15.6546 C.3     1  UNL1        0.0686
     28 N          64.3331   83.9931   15.2469 N.3     1  UNL1       -0.2975
     29 H          63.9506   83.0656   15.4308 H       1  UNL1        0.1232
     30 C          64.8437   83.9791   13.8366 C.3     1  UNL1        0.0685
     31 C          64.2528   83.0323   12.8344 C.3     1  UNL1        0.0158
     32 C          63.3876   81.8967   13.2948 C.3     1  UNL1        0.0014
     33 C          62.7968   80.9499   12.2926 C.3     1  UNL1        0.0000
     34 C          63.0710   81.1385   10.8301 C.3     1  UNL1        0.0000
     35 C          63.9362   82.2741   10.3697 C.3     1  UNL1        0.0000
     36 C          64.5271   83.2209   11.3718 C.3     1  UNL1        0.0014
@<TRIPOS>BOND
     1    13    14   ar
     2    14    15   ar
     3    15    16   ar
     4    16    17   ar
     5    17    18   ar
     6    17    19    1
     7    19    20    1
     8    20    21    1
     9    21    12    1
    10    12     1    1
    11     1    24    1
    12    24    25    1
    13    25    26    1
    14    26    27    1
    15    27    28    1
    16    28    30    1
    17    30    31    1
    18    31    32    1
    19    32    33    1
    20    33    34    1
    21    34    35    1
    22    35    36    1
    23     2     1    1
    24     2     3    1
    25     3     4    1
    26     4     5    1
    27     5     6    1
    28     6     7   ar
    29     7     8   ar
    30     8     9   ar
    31     9    10   ar
    32    10    11   ar
    33    21    22    1
    34    18    13   ar
    35    36    31    1
    36    11     2    1
    37    22    16    1
    38    11     6   ar
    39    20    23    1
    40    28    29    1
@<TRIPOS>MOLECULE
*****
 36 40 0 0 0
SMALL
GASTEIGER

@<TRIPOS>ATOM
      1 N          63.4430   90.4357   11.8985 N.3     1  UNL1       -0.2679
      2 C          64.4350   91.5588   11.8322 C.3     1  UNL1        0.0978
      3 C          64.7472   92.2070   10.5160 C.3     1  UNL1        0.0224
      4 C          65.7393   93.3302   10.4497 C.3     1  UNL1        0.0065
      5 C          66.4191   93.8051   11.6996 C.3     1  UNL1        0.0277
      6 C          66.1069   93.1569   13.0158 C.ar    1  UNL1       -0.0073
      7 C          66.7867   93.6318   14.2656 C.ar    1  UNL1       -0.0015
      8 C          66.4746   92.9836   15.5818 C.ar    1  UNL1        0.0203
      9 C          65.4826   91.8605   15.6481 C.ar    1  UNL1        0.0985
     10 N          64.8027   91.3856   14.3983 N.ar    1  UNL1       -0.2471
     11 C          65.1149   92.0338   13.0821 C.ar    1  UNL1        0.0695
     12 C          63.1039   89.8115   13.2197 C.3     1  UNL1        0.0886
     13 C          64.1148   83.0150   13.4101 C.ar    1  UNL1       -0.0003
     14 C          63.2502   83.3500   12.2310 C.ar    1  UNL1       -0.0003
     15 C          62.8752   84.7763   11.9571 C.ar    1  UNL1       -0.0045
     16 C          63.3646   85.8676   12.8623 C.ar    1  UNL1       -0.0234
     17 C          64.2292   85.5326   14.0414 C.ar    1  UNL1       -0.0103
     18 C          64.6042   84.1063   14.3153 C.ar    1  UNL1       -0.0032
     19 C          64.7187   86.6240   14.9467 C.3     1  UNL1        0.0953
     20 N          64.3436   88.0503   14.6728 N.3     1  UNL1       -0.2934
     21 C          63.4790   88.3852   13.4936 C.3     1  UNL1        0.0748
     22 C          62.9895   87.2939   12.5884 C.3     1  UNL1        0.0432
     23 H          65.2154   88.5665   14.5548 H       1  UNL1        0.1236
     24 C          62.7900   89.9367   10.6436 C.3     1  UNL1        0.0725
     25 C          61.5742   90.6299   10.1041 C.3     1  UNL1        0.0188
     26 C          60.2089   90.2251   10.5754 C.3     1  UNL1        0.0185
     27 C          60.0449   89.0174   11.4499 C.3     1  UNL1        0.0686
     28 N          59.8422   87.6658   10.8317 N.3     1  UNL1       -0.2975
     29 H          58.9612   87.3040   11.1971 H       1  UNL1        0.1232
     30 C          59.7826   87.5248    9.3396 C.3     1  UNL1        0.0685
     31 C          60.7443   86.6160    8.6331 C.3     1  UNL1        0.0158
     32 C          62.1594   86.4997    9.1166 C.3     1  UNL1        0.0014
     33 C          63.1211   85.5909    8.4101 C.3     1  UNL1        0.0000
     34 C          62.6677   84.7984    7.2201 C.3     1  UNL1        0.0000
     35 C          61.2526   84.9147    6.7365 C.3     1  UNL1        0.0000
     36 C          60.2909   85.8235    7.4430 C.3     1  UNL1        0.0014
@<TRIPOS>BOND
     1    13    14   ar
     2    14    15   ar
     3    15    16   ar
     4    16    17   ar
     5    17    18   ar
     6    17    19    1
     7    19    20    1
     8    20    21    1
     9    21    12    1
    10    12     1    1
    11     1    24    1
    12    24    25    1
    13    25    26    1
    14    26    27    1
    15    27    28    1
    16    28    30    1
    17    30    31    1
    18    31    32    1
    19    32    33    1
    20    33    34    1
    21    34    35    1
    22    35    36    1
    23     2     1    1
    24     2     3    1
    25     3     4    1
    26     4     5    1
    27     5     6    1
    28     6     7   ar
    29     7     8   ar
    30     8     9   ar
    31     9    10   ar
    32    10    11   ar
    33    21    22    1
    34    18    13   ar
    35    36    31    1
    36    11     2    1
    37    22    16    1
    38    11     6   ar
    39    20    23    1
    40    28    29    1
@<TRIPOS>MOLECULE
*****
 36 40 0 0 0
SMALL
GASTEIGER

@<TRIPOS>ATOM
      1 N          63.3610   85.1295   12.6411 N.3     1  UNL1       -0.2679
      2 C          63.4626   83.8148   11.9263 C.3     1  UNL1        0.0978
      3 C          64.1496   83.7358   10.5953 C.3     1  UNL1        0.0224
      4 C          64.2511   82.4210    9.8804 C.3     1  UNL1        0.0065
      5 C          63.6656   81.1851   10.4967 C.3     1  UNL1        0.0277
      6 C          62.9785   81.2641   11.8277 C.ar    1  UNL1       -0.0073
      7 C          62.3930   80.0282   12.4440 C.ar    1  UNL1       -0.0015
      8 C          61.7059   80.1071   13.7750 C.ar    1  UNL1        0.0203
      9 C          61.6044   81.4219   14.4898 C.ar    1  UNL1        0.0985
     10 N          62.1899   82.6578   13.8736 N.ar    1  UNL1       -0.2471
     11 C          62.8770   82.5788   12.5425 C.ar    1  UNL1        0.0695
     12 C          63.9876   85.2983   13.9936 C.3     1  UNL1        0.0886
     13 C          64.1612   91.7822   16.2692 C.ar    1  UNL1       -0.0003
     14 C          64.8770   91.7044   14.9534 C.ar    1  UNL1       -0.0003
     15 C          64.9854   90.3920   14.2350 C.ar    1  UNL1       -0.0045
     16 C          64.3781   89.1575   14.8326 C.ar    1  UNL1       -0.0234
     17 C          63.6623   89.2354   16.1485 C.ar    1  UNL1       -0.0103
     18 C          63.5538   90.5477   16.8668 C.ar    1  UNL1       -0.0032
     19 C          63.0549   88.0009   16.7461 C.3     1  UNL1        0.0953
     20 N          63.1633   86.6885   16.0278 N.3     1  UNL1       -0.2934
     21 C          63.8792   86.6107   14.7119 C.3     1  UNL1        0.0748
     22 C          64.4865   87.8452   14.1143 C.3     1  UNL1        0.0432
     23 H          62.2107   86.3626   15.8645 H       1  UNL1        0.1236
     24 C          62.6329   86.2756   12.0036 C.3     1  UNL1        0.0725
     25 C          61.4111   86.0185   11.1723 C.3     1  UNL1        0.0188
     26 C          61.4972   86.0730    9.6757 C.3     1  UNL1        0.0185
     27 C          60.2703   86.3664    8.8641 C.3     1  UNL1        0.0686
     28 N          60.2596   87.5267    7.9136 N.3     1  UNL1       -0.2975
     29 H          59.5085   87.3533    7.2457 H       1  UNL1        0.1232
     30 C          60.0638   88.9201    8.4333 C.3     1  UNL1        0.0685
     31 C          60.6899   89.3307    9.7331 C.3     1  UNL1        0.0158
     32 C          59.8518   89.4213   10.9737 C.3     1  UNL1        0.0014
     33 C          60.4779   89.8319   12.2735 C.3     1  UNL1        0.0000
     34 C          61.9421   90.1520   12.3326 C.3     1  UNL1        0.0000
     35 C          62.7802   90.0615   11.0919 C.3     1  UNL1        0.0000
     36 C          62.1541   89.6508    9.7922 C.3     1  UNL1        0.0014
@<TRIPOS>BOND
     1    13    14   ar
     2    14    15   ar
     3    15    16   ar
     4    16    17   ar
     5    17    18   ar
     6    17    19    1
     7    19    20    1
     8    20    21    1
     9    21    12    1
    10    12     1    1
    11     1    24    1
    12    24    25    1
    13    25    26    1
    14    26    27    1
    15    27    28    1
    16    28    30    1
    17    30    31    1
    18    31    32    1
    19    32    33    1
    20    33    34    1
    21    34    35    1
    22    35    36    1
    23     2     1    1
    24     2     3    1
    25     3     4    1
    26     4     5    1
    27     5     6    1
    28     6     7   ar
    29     7     8   ar
    30     8     9   ar
    31     9    10   ar
    32    10    11   ar
    33    21    22    1
    34    18    13   ar
    35    36    31    1
    36    11     2    1
    37    22    16    1
    38    11     6   ar
    39    20    23    1
    40    28    29    1
@<TRIPOS>MOLECULE
*****
 36 40 0 0 0
SMALL
GASTEIGER

@<TRIPOS>ATOM
      1 N          61.6331   87.9156   10.9546 N.3     1  UNL1       -0.2679
      2 C          60.8444   87.4723    9.7582 C.3     1  UNL1        0.0978
      3 C          59.4705   88.0247    9.5189 C.3     1  UNL1        0.0224
      4 C          58.6818   87.5814    8.3223 C.3     1  UNL1        0.0065
      5 C          59.2671   86.5857    7.3652 C.3     1  UNL1        0.0277
      6 C          60.6410   86.0333    7.6046 C.ar    1  UNL1       -0.0073
      7 C          61.2262   85.0377    6.6474 C.ar    1  UNL1       -0.0015
      8 C          62.6001   84.4853    6.8868 C.ar    1  UNL1        0.0203
      9 C          63.3888   84.9286    8.0832 C.ar    1  UNL1        0.0985
     10 N          62.8035   85.9242    9.0403 N.ar    1  UNL1       -0.2471
     11 C          61.4296   86.4766    8.8010 C.ar    1  UNL1        0.0695
     12 C          61.4599   89.3043   11.4945 C.3     1  UNL1        0.0886
     13 C          66.9550   92.9642   13.4074 C.ar    1  UNL1       -0.0003
     14 C          66.4968   92.1257   14.5636 C.ar    1  UNL1       -0.0003
     15 C          65.3061   91.2260   14.4123 C.ar    1  UNL1       -0.0045
     16 C          64.5737   91.1649   13.1048 C.ar    1  UNL1       -0.0234
     17 C          65.0319   92.0034   11.9486 C.ar    1  UNL1       -0.0103
     18 C          66.2225   92.9031   12.0999 C.ar    1  UNL1       -0.0032
     19 C          64.2994   91.9423   10.6409 C.3     1  UNL1        0.0953
     20 N          63.1087   91.0426   10.4896 N.3     1  UNL1       -0.2934
     21 C          62.6506   90.2040   11.6459 C.3     1  UNL1        0.0748
     22 C          63.3830   90.2652   12.9534 C.3     1  UNL1        0.0432
     23 H          63.3200   90.4006    9.7257 H       1  UNL1        0.1236
     24 C          62.5949   86.9702   11.6112 C.3     1  UNL1        0.0725
     25 C          62.0854   85.7336   12.2904 C.3     1  UNL1        0.0188
     26 C          62.8268   84.4379   12.1440 C.3     1  UNL1        0.0185
     27 C          63.0313   83.5519   13.3370 C.3     1  UNL1        0.0686
     28 N          64.3171   83.6154   14.1068 N.3     1  UNL1       -0.2975
     29 H          65.0011   83.0690   13.5833 H       1  UNL1        0.1232
     30 C          64.9532   84.9427   14.3962 C.3     1  UNL1        0.0685
     31 C          64.2694   85.9196   15.3062 C.3     1  UNL1        0.0158
     32 C          64.3472   87.3903   15.0221 C.3     1  UNL1        0.0014
     33 C          63.6634   88.3672   15.9321 C.3     1  UNL1        0.0000
     34 C          62.9019   87.8734   17.1262 C.3     1  UNL1        0.0000
     35 C          62.8241   86.4026   17.4104 C.3     1  UNL1        0.0000
     36 C          63.5078   85.4257   16.5004 C.3     1  UNL1        0.0014
@<TRIPOS>BOND
     1    13    14   ar
     2    14    15   ar
     3    15    16   ar
     4    16    17   ar
     5    17    18   ar
     6    17    19    1
     7    19    20    1
     8    20    21    1
     9    21    12    1
    10    12     1    1
    11     1    24    1
    12    24    25    1
    13    25    26    1
    14    26    27    1
    15    27    28    1
    16    28    30    1
    17    30    31    1
    18    31    32    1
    19    32    33    1
    20    33    34    1
    21    34    35    1
    22    35    36    1
    23     2     1    1
    24     2     3    1
    25     3     4    1
    26     4     5    1
    27     5     6    1
    28     6     7   ar
    29     7     8   ar
    30     8     9   ar
    31     9    10   ar
    32    10    11   ar
    33    21    22    1
    34    18    13   ar
    35    36    31    1
    36    11     2    1
    37    22    16    1
    38    11     6   ar
    39    20    23    1
    40    28    29    1
@<TRIPOS>MOLECULE
*****
 36 40 0 0 0
SMALL
GASTEIGER

@<TRIPOS>ATOM
      1 N          63.7013   90.5324   13.7127 N.3     1  UNL1       -0.2679
      2 C          64.6439   91.5562   13.1529 C.3     1  UNL1        0.0978
      3 C          64.5709   91.9290   11.7018 C.3     1  UNL1        0.0224
      4 C          65.5136   92.9528   11.1421 C.3     1  UNL1        0.0065
      5 C          66.5292   93.6039   12.0335 C.3     1  UNL1        0.0277
      6 C          66.6022   93.2311   13.4846 C.ar    1  UNL1       -0.0073
      7 C          67.6178   93.8822   14.3760 C.ar    1  UNL1       -0.0015
      8 C          67.6908   93.5095   15.8271 C.ar    1  UNL1        0.0203
      9 C          66.7482   92.4857   16.3869 C.ar    1  UNL1        0.0985
     10 N          65.7326   91.8346   15.4955 N.ar    1  UNL1       -0.2471
     11 C          65.6596   92.2073   14.0444 C.ar    1  UNL1        0.0695
     12 C          63.9041   90.0070   15.1030 C.3     1  UNL1        0.0886
     13 C          63.8657   83.1352   15.2670 C.ar    1  UNL1       -0.0003
     14 C          64.6014   83.5930   14.0426 C.ar    1  UNL1       -0.0003
     15 C          64.7561   85.0589   13.7649 C.ar    1  UNL1       -0.0045
     16 C          64.1753   86.0670   14.7116 C.ar    1  UNL1       -0.0234
     17 C          63.4397   85.6092   15.9360 C.ar    1  UNL1       -0.0103
     18 C          63.2849   84.1433   16.2137 C.ar    1  UNL1       -0.0032
     19 C          62.8588   86.6173   16.8828 C.3     1  UNL1        0.0953
     20 N          63.0136   88.0832   16.6051 N.3     1  UNL1       -0.2934
     21 C          63.7493   88.5410   15.3806 C.3     1  UNL1        0.0748
     22 C          64.3301   87.5329   14.4339 C.3     1  UNL1        0.0432
     23 H          63.4984   88.4853   17.4074 H       1  UNL1        0.1236
     24 C          62.5559   90.0341   12.8822 C.3     1  UNL1        0.0725
     25 C          62.8117   89.1067   11.7314 C.3     1  UNL1        0.0188
     26 C          62.3634   89.4836   10.3504 C.3     1  UNL1        0.0185
     27 C          60.9000   89.5357   10.0249 C.3     1  UNL1        0.0686
     28 N          60.3631   88.7600    8.8588 N.3     1  UNL1       -0.2975
     29 H          61.0474   88.8464    8.1074 H       1  UNL1        0.1232
     30 C          60.0629   87.2976    9.0050 C.3     1  UNL1        0.0685
     31 C          61.1580   86.3402    9.3713 C.3     1  UNL1        0.0158
     32 C          62.0869   85.8228    8.3133 C.3     1  UNL1        0.0014
     33 C          63.1819   84.8654    8.6796 C.3     1  UNL1        0.0000
     34 C          63.3481   84.4253   10.1039 C.3     1  UNL1        0.0000
     35 C          62.4191   84.9427   11.1619 C.3     1  UNL1        0.0000
     36 C          61.3241   85.9001   10.7956 C.3     1  UNL1        0.0014
@<TRIPOS>BOND
     1    13    14   ar
     2    14    15   ar
     3    15    16   ar
     4    16    17   ar
     5    17    18   ar
     6    17    19    1
     7    19    20    1
     8    20    21    1
     9    21    12    1
    10    12     1    1
    11     1    24    1
    12    24    25    1
    13    25    26    1
    14    26    27    1
    15    27    28    1
    16    28    30    1
    17    30    31    1
    18    31    32    1
    19    32    33    1
    20    33    34    1
    21    34    35    1
    22    35    36    1
    23     2     1    1
    24     2     3    1
    25     3     4    1
    26     4     5    1
    27     5     6    1
    28     6     7   ar
    29     7     8   ar
    30     8     9   ar
    31     9    10   ar
    32    10    11   ar
    33    21    22    1
    34    18    13   ar
    35    36    31    1
    36    11     2    1
    37    22    16    1
    38    11     6   ar
    39    20    23    1
    40    28    29    1
@<TRIPOS>MOLECULE
*****
 36 40 0 0 0
SMALL
GASTEIGER

@<TRIPOS>ATOM
      1 N          62.5393   89.8950   11.3602 N.3     1  UNL1       -0.2679
      2 C          63.2486   89.7658   12.6755 C.3     1  UNL1        0.0978
      3 C          63.6518   90.9954   13.4342 C.3     1  UNL1        0.0224
      4 C          64.3612   90.8661   14.7496 C.3     1  UNL1        0.0065
      5 C          64.6674   89.5073   15.3062 C.3     1  UNL1        0.0277
      6 C          64.2642   88.2777   14.5475 C.ar    1  UNL1       -0.0073
      7 C          64.5704   86.9189   15.1041 C.ar    1  UNL1       -0.0015
      8 C          64.1672   85.6893   14.3454 C.ar    1  UNL1        0.0203
      9 C          63.4579   85.8186   13.0301 C.ar    1  UNL1        0.0985
     10 N          63.1517   87.1774   12.4735 N.ar    1  UNL1       -0.2471
     11 C          63.5549   88.4069   13.2322 C.ar    1  UNL1        0.0695
     12 C          61.1834   89.2804   11.1757 C.3     1  UNL1        0.0886
     13 C          61.4152   84.3544    6.3871 C.ar    1  UNL1       -0.0003
     14 C          62.7663   84.4820    7.0260 C.ar    1  UNL1       -0.0003
     15 C          62.9901   85.4928    8.1115 C.ar    1  UNL1       -0.0045
     16 C          61.8629   86.3759    8.5581 C.ar    1  UNL1       -0.0234
     17 C          60.5119   86.2483    7.9191 C.ar    1  UNL1       -0.0103
     18 C          60.2880   85.2375    6.8336 C.ar    1  UNL1       -0.0032
     19 C          59.3846   87.1314    8.3657 C.3     1  UNL1        0.0953
     20 N          59.6084   88.1421    9.4512 N.3     1  UNL1       -0.2934
     21 C          60.9596   88.2697   10.0902 C.3     1  UNL1        0.0748
     22 C          62.0868   87.3866    9.6436 C.3     1  UNL1        0.0432
     23 H          58.9491   87.9231   10.1980 H       1  UNL1        0.1236
     24 C          63.1858   90.6389   10.2293 C.3     1  UNL1        0.0725
     25 C          63.8082   91.9816   10.4735 C.3     1  UNL1        0.0188
     26 C          65.3009   92.1293   10.4632 C.3     1  UNL1        0.0185
     27 C          65.9230   93.4294   10.0472 C.3     1  UNL1        0.0686
     28 N          66.7001   94.2408   11.0410 N.3     1  UNL1       -0.2975
     29 H          66.7577   95.1880   10.6670 H       1  UNL1        0.1232
     30 C          66.2132   94.3623   12.4545 C.3     1  UNL1        0.0685
     31 C          66.7853   93.4789   13.5233 C.3     1  UNL1        0.0158
     32 C          66.6581   93.8687   14.9662 C.3     1  UNL1        0.0014
     33 C          67.2302   92.9853   16.0350 C.3     1  UNL1        0.0000
     34 C          67.9295   91.7121   15.6610 C.3     1  UNL1        0.0000
     35 C          68.0567   91.3223   14.2181 C.3     1  UNL1        0.0000
     36 C          67.4846   92.2057   13.1493 C.3     1  UNL1        0.0014
@<TRIPOS>BOND
     1    13    14   ar
     2    14    15   ar
     3    15    16   ar
     4    16    17   ar
     5    17    18   ar
     6    17    19    1
     7    19    20    1
     8    20    21    1
     9    21    12    1
    10    12     1    1
    11     1    24    1
    12    24    25    1
    13    25    26    1
    14    26    27    1
    15    27    28    1
    16    28    30    1
    17    30    31    1
    18    31    32    1
    19    32    33    1
    20    33    34    1
    21    34    35    1
    22    35    36    1
    23     2     1    1
    24     2     3    1
    25     3     4    1
    26     4     5    1
    27     5     6    1
    28     6     7   ar
    29     7     8   ar
    30     8     9   ar
    31     9    10   ar
    32    10    11   ar
    33    21    22    1
    34    18    13   ar
    35    36    31    1
    36    11     2    1
    37    22    16    1
    38    11     6   ar
    39    20    23    1
    40    28    29    1
