@<TRIPOS>MOLECULE
*****
 38 41 0 0 0
SMALL
GASTEIGER

@<TRIPOS>ATOM
      1 N          59.4035   93.5686    3.1062 N.am    1  UNL1       -0.2680
      2 C          59.8042   93.3593    1.6760 C.2     1  UNL1        0.3092
      3 O          60.2931   92.0155    1.2231 O.2     1  UNL1       -0.2521
      4 N          59.7161   94.4938    0.6986 N.am    1  UNL1       -0.2533
      5 H          59.0827   94.4506    3.4035 H       1  UNL1        0.1564
      6 H          59.3952   95.3758    0.9959 H       1  UNL1        0.1578
      7 C          59.6680   90.1651    6.0381 C.ar    1  UNL1        0.0361
      8 C          60.9101   90.6817    5.3747 C.ar    1  UNL1        0.0043
      9 C          60.8220   91.8163    4.3974 C.ar    1  UNL1        0.0148
     10 C          59.4917   92.4341    4.0835 C.ar    1  UNL1        0.0516
     11 C          58.2495   91.9174    4.7469 C.ar    1  UNL1        0.0148
     12 C          58.3376   90.7829    5.7242 C.ar    1  UNL1        0.0043
     13 C          59.8612   88.1753    9.4664 C.ar    1  UNL1        0.2311
     14 C          59.9323   86.7616    8.9700 C.ar    1  UNL1        0.1153
     15 C          59.9153   86.4824    7.4963 C.ar    1  UNL1        0.2311
     16 N          59.8271   87.6168    6.5190 N.ar    1  UNL1       -0.1923
     17 C          59.7561   89.0305    7.0154 C.ar    1  UNL1        0.1684
     18 N          59.7731   89.3097    8.4891 N.ar    1  UNL1       -0.1923
     19 C          60.0716   89.8570   11.4355 C.3     1  UNL1        0.2542
     20 O          59.8783   88.4545   10.9401 O.3     1  UNL1       -0.4560
     21 O          59.9863   85.0686    7.0000 O.3     1  UNL1       -0.4560
     22 C          61.2564   84.5496    6.3937 C.3     1  UNL1        0.2542
     23 C          60.1168   94.2845   -0.7316 C.ar    1  UNL1        0.1380
     24 C          61.4996   93.9747   -1.2235 C.ar    1  UNL1        0.0509
     25 C          61.4425   93.8470   -2.7170 C.ar    1  UNL1        0.0810
     26 N          60.0244   94.0778   -3.1480 N.ar    1  UNL1       -0.1683
     27 N          59.2051   94.3483   -1.9210 N.ar    1  UNL1       -0.2162
     28 C          57.7326   94.6325   -1.8890 C.ar    1  UNL1        0.0842
     29 C          57.2436   96.0488   -1.8194 C.ar    1  UNL1        0.0189
     30 C          55.7711   96.3331   -1.7874 C.ar    1  UNL1       -0.0027
     31 C          54.7877   95.2011   -1.8251 C.ar    1  UNL1       -0.0218
     32 C          53.3152   95.4854   -1.7931 C.3     1  UNL1        0.0310
     33 C          55.2767   93.7848   -1.8947 C.ar    1  UNL1       -0.0027
     34 C          56.7492   93.5005   -1.9267 C.ar    1  UNL1        0.0189
     35 C          62.6002   93.5419   -3.6207 C.3     1  UNL1        0.0372
     36 C          63.3890   93.0491   -2.4439 C.3     1  UNL1        0.0060
     37 C          61.8114   94.0348   -4.7975 C.3     1  UNL1        0.0060
     38 C          63.7578   93.2369   -4.5244 C.3     1  UNL1        0.0060
@<TRIPOS>BOND
     1    19    20    1
     2    20    13    1
     3    13    14   ar
     4    14    15   ar
     5    15    21    1
     6    21    22    1
     7    15    16   ar
     8    16    17   ar
     9    17     7    1
    10     7     8   ar
    11     8     9   ar
    12     9    10   ar
    13    10     1    1
    14     1     2   am
    15     2     3    2
    16     2     4   am
    17     4    23    1
    18    23    24   ar
    19    24    25   ar
    20    25    35    1
    21    35    36    1
    22    35    37    1
    23    35    38    1
    24    25    26   ar
    25    26    27   ar
    26    27    28    1
    27    28    29   ar
    28    29    30   ar
    29    30    31   ar
    30    31    32    1
    31    31    33   ar
    32    33    34   ar
    33    10    11   ar
    34    11    12   ar
    35    17    18   ar
    36    18    13   ar
    37    12     7   ar
    38    27    23   ar
    39    34    28   ar
    40     1     5    1
    41     4     6    1
@<TRIPOS>MOLECULE
*****
 38 41 0 0 0
SMALL
GASTEIGER

@<TRIPOS>ATOM
      1 N          59.3863   93.5208    3.1469 N.am    1  UNL1       -0.2680
      2 C          59.8073   93.3246    1.7207 C.2     1  UNL1        0.3092
      3 O          60.3265   91.9920    1.2685 O.2     1  UNL1       -0.2521
      4 N          59.7091   94.4611    0.7465 N.am    1  UNL1       -0.2533
      5 H          59.0455   94.3955    3.4437 H       1  UNL1        0.1564
      6 H          59.3683   95.3357    1.0433 H       1  UNL1        0.1578
      7 C          59.6810   90.1114    6.0691 C.ar    1  UNL1        0.0361
      8 C          58.3488   90.7357    5.7769 C.ar    1  UNL1        0.0043
      9 C          58.2505   91.8722    4.8028 C.ar    1  UNL1        0.0148
     10 C          59.4845   92.3844    4.1209 C.ar    1  UNL1        0.0516
     11 C          60.8168   91.7601    4.4132 C.ar    1  UNL1        0.0148
     12 C          60.9150   90.6236    5.3873 C.ar    1  UNL1        0.0043
     13 C          59.9638   86.4271    7.5167 C.ar    1  UNL1        0.2311
     14 C          59.9758   86.7020    8.9912 C.ar    1  UNL1        0.1153
     15 C          59.8895   88.1134    9.4917 C.ar    1  UNL1        0.2311
     16 N          59.7912   89.2499    8.5177 N.ar    1  UNL1       -0.1923
     17 C          59.7793   88.9749    7.0432 C.ar    1  UNL1        0.1684
     18 N          59.8656   87.5635    6.5427 N.ar    1  UNL1       -0.1923
     19 C          61.3046   84.5308    6.3520 C.3     1  UNL1        0.2542
     20 O          60.0501   85.0157    7.0162 O.3     1  UNL1       -0.4560
     21 O          59.9015   88.3883   10.9663 O.3     1  UNL1       -0.4560
     22 C          59.8330   89.8008   11.4665 C.3     1  UNL1        0.2542
     23 C          60.1301   94.2649   -0.6797 C.ar    1  UNL1        0.1380
     24 C          61.5178   93.9499   -1.1540 C.ar    1  UNL1        0.0509
     25 C          61.4827   93.8395   -2.6495 C.ar    1  UNL1        0.0810
     26 N          60.0732   94.0864   -3.0995 N.ar    1  UNL1       -0.1683
     27 N          59.2372   94.3492   -1.8821 N.ar    1  UNL1       -0.2162
     28 C          57.7667   94.6446   -1.8693 C.ar    1  UNL1        0.0842
     29 C          57.2875   96.0647   -1.8082 C.ar    1  UNL1        0.0189
     30 C          55.8169   96.3601   -1.7954 C.ar    1  UNL1       -0.0027
     31 C          54.8255   95.2355   -1.8438 C.ar    1  UNL1       -0.0218
     32 C          53.3549   95.5308   -1.8311 C.3     1  UNL1        0.0310
     33 C          55.3047   93.8154   -1.9050 C.ar    1  UNL1       -0.0027
     34 C          56.7753   93.5200   -1.9177 C.ar    1  UNL1        0.0189
     35 C          62.6517   93.5357   -3.5389 C.3     1  UNL1        0.0372
     36 C          63.4429   93.0877   -2.3459 C.3     1  UNL1        0.0060
     37 C          61.8605   93.9837   -4.7319 C.3     1  UNL1        0.0060
     38 C          63.8208   93.2319   -4.4283 C.3     1  UNL1        0.0060
@<TRIPOS>BOND
     1    19    20    1
     2    20    13    1
     3    13    14   ar
     4    14    15   ar
     5    15    21    1
     6    21    22    1
     7    15    16   ar
     8    16    17   ar
     9    17     7    1
    10     7     8   ar
    11     8     9   ar
    12     9    10   ar
    13    10     1    1
    14     1     2   am
    15     2     3    2
    16     2     4   am
    17     4    23    1
    18    23    24   ar
    19    24    25   ar
    20    25    35    1
    21    35    36    1
    22    35    37    1
    23    35    38    1
    24    25    26   ar
    25    26    27   ar
    26    27    28    1
    27    28    29   ar
    28    29    30   ar
    29    30    31   ar
    30    31    32    1
    31    31    33   ar
    32    33    34   ar
    33    10    11   ar
    34    11    12   ar
    35    17    18   ar
    36    18    13   ar
    37    12     7   ar
    38    27    23   ar
    39    34    28   ar
    40     1     5    1
    41     4     6    1
@<TRIPOS>MOLECULE
*****
 38 41 0 0 0
SMALL
GASTEIGER

@<TRIPOS>ATOM
      1 N          59.4260   93.3575    2.5746 N.am    1  UNL1       -0.2680
      2 C          60.4210   93.3293    1.4525 C.2     1  UNL1        0.3092
      3 O          61.4941   92.2815    1.4278 O.2     1  UNL1       -0.2521
      4 N          60.3429   94.3488    0.3549 N.am    1  UNL1       -0.2533
      5 H          58.7217   94.0452    2.5908 H       1  UNL1        0.1564
      6 H          59.6385   95.0365    0.3711 H       1  UNL1        0.1578
      7 C          59.6605   90.2990    5.8670 C.ar    1  UNL1        0.0361
      8 C          60.9166   90.8008    5.2188 C.ar    1  UNL1        0.0043
      9 C          60.8385   91.8204    4.1212 C.ar    1  UNL1        0.0148
     10 C          59.5042   92.3380    3.6721 C.ar    1  UNL1        0.0516
     11 C          58.2481   91.8361    4.3204 C.ar    1  UNL1        0.0148
     12 C          58.3262   90.8166    5.4179 C.ar    1  UNL1        0.0043
     13 C          59.8995   86.8004    7.7254 C.ar    1  UNL1        0.2311
     14 C          59.8949   87.2403    9.1594 C.ar    1  UNL1        0.1153
     15 C          59.8121   88.6997    9.4960 C.ar    1  UNL1        0.2311
     16 N          59.7340   89.7192    8.3986 N.ar    1  UNL1       -0.1923
     17 C          59.7386   89.2794    6.9646 C.ar    1  UNL1        0.1684
     18 N          59.8214   87.8200    6.6280 N.ar    1  UNL1       -0.1923
     19 C          61.0987   84.8326    6.5256 C.3     1  UNL1        0.2542
     20 O          59.9823   85.3410    7.3888 O.3     1  UNL1       -0.4560
     21 O          59.8074   89.1395   10.9301 O.3     1  UNL1       -0.4560
     22 C          61.0640   89.6669   11.5569 C.3     1  UNL1        0.2542
     23 C          61.3378   94.3205   -0.7672 C.ar    1  UNL1        0.1380
     24 C          61.0710   93.8637   -2.1708 C.ar    1  UNL1        0.0509
     25 C          62.3426   94.0050   -2.9539 C.ar    1  UNL1        0.0810
     26 N          63.3952   94.5491   -2.0341 N.ar    1  UNL1       -0.1683
     27 N          62.7742   94.7441   -0.6827 N.ar    1  UNL1       -0.2162
     28 C          63.4680   95.2704    0.5387 C.ar    1  UNL1        0.0842
     29 C          64.8415   94.7808    0.8905 C.ar    1  UNL1        0.0189
     30 C          65.5352   95.3070    2.1119 C.ar    1  UNL1       -0.0027
     31 C          64.8555   96.3228    2.9815 C.ar    1  UNL1       -0.0218
     32 C          65.5492   96.8490    4.2029 C.3     1  UNL1        0.0310
     33 C          63.4820   96.8123    2.6296 C.ar    1  UNL1       -0.0027
     34 C          62.7882   96.2862    1.4083 C.ar    1  UNL1        0.0189
     35 C          62.5288   93.6623   -4.4023 C.3     1  UNL1        0.0372
     36 C          61.3316   94.4950   -4.7532 C.3     1  UNL1        0.0060
     37 C          63.7260   92.8296   -4.0513 C.3     1  UNL1        0.0060
     38 C          62.7150   93.3196   -5.8507 C.3     1  UNL1        0.0060
@<TRIPOS>BOND
     1    19    20    1
     2    20    13    1
     3    13    14   ar
     4    14    15   ar
     5    15    21    1
     6    21    22    1
     7    15    16   ar
     8    16    17   ar
     9    17     7    1
    10     7     8   ar
    11     8     9   ar
    12     9    10   ar
    13    10     1    1
    14     1     2   am
    15     2     3    2
    16     2     4   am
    17     4    23    1
    18    23    24   ar
    19    24    25   ar
    20    25    35    1
    21    35    36    1
    22    35    37    1
    23    35    38    1
    24    25    26   ar
    25    26    27   ar
    26    27    28    1
    27    28    29   ar
    28    29    30   ar
    29    30    31   ar
    30    31    32    1
    31    31    33   ar
    32    33    34   ar
    33    10    11   ar
    34    11    12   ar
    35    17    18   ar
    36    18    13   ar
    37    12     7   ar
    38    27    23   ar
    39    34    28   ar
    40     1     5    1
    41     4     6    1
@<TRIPOS>MOLECULE
*****
 38 41 0 0 0
SMALL
GASTEIGER

@<TRIPOS>ATOM
      1 N          59.8133   88.9964    7.7318 N.am    1  UNL1       -0.2680
      2 C          60.7865   89.2284    8.8494 C.2     1  UNL1        0.3092
      3 O          61.7140   90.4064    8.8039 O.2     1  UNL1       -0.2521
      4 N          60.8324   88.2823   10.0125 N.am    1  UNL1       -0.2533
      5 H          59.2046   88.2232    7.7617 H       1  UNL1        0.1564
      6 H          60.2237   87.5091   10.0424 H       1  UNL1        0.1578
      7 C          59.6759   91.8348    4.2426 C.ar    1  UNL1        0.0361
      8 C          58.4147   91.4864    4.9761 C.ar    1  UNL1        0.0043
      9 C          58.4605   90.5402    6.1392 C.ar    1  UNL1        0.0148
     10 C          59.7675   89.9425    6.5688 C.ar    1  UNL1        0.0516
     11 C          61.0287   90.2910    5.8353 C.ar    1  UNL1        0.0148
     12 C          60.9829   91.2371    4.6722 C.ar    1  UNL1        0.0043
     13 C          60.1167   95.1218    2.0628 C.ar    1  UNL1        0.2311
     14 C          59.5387   94.6732    0.7534 C.ar    1  UNL1        0.1153
     15 C          59.0064   93.2784    0.6070 C.ar    1  UNL1        0.2311
     16 N          59.0521   92.3323    1.7701 N.ar    1  UNL1       -0.1923
     17 C          59.6301   92.7809    3.0795 C.ar    1  UNL1        0.1684
     18 N          60.1624   94.1756    3.2259 N.ar    1  UNL1       -0.1923
     19 C          62.0386   96.8413    1.7473 C.3     1  UNL1        0.2542
     20 O          60.6490   96.5165    2.2092 O.3     1  UNL1       -0.4560
     21 O          58.4284   92.8299   -0.7025 O.3     1  UNL1       -0.4560
     22 C          57.0325   93.2271   -1.0815 C.3     1  UNL1        0.2542
     23 C          61.8056   88.5142   11.1301 C.ar    1  UNL1        0.1380
     24 C          62.0663   89.8231   11.8148 C.ar    1  UNL1        0.0509
     25 C          63.1109   89.5958   12.8670 C.ar    1  UNL1        0.0810
     26 N          63.4958   88.1464   12.8326 N.ar    1  UNL1       -0.1683
     27 N          62.6891   87.4780   11.7591 N.ar    1  UNL1       -0.2162
     28 C          62.7544   86.0279   11.3810 C.ar    1  UNL1        0.0842
     29 C          62.6929   84.9720   12.4447 C.ar    1  UNL1        0.0189
     30 C          62.7582   83.5219   12.0667 C.ar    1  UNL1       -0.0027
     31 C          62.8851   83.1276   10.6250 C.ar    1  UNL1       -0.0218
     32 C          62.9504   81.6775   10.2470 C.3     1  UNL1        0.0310
     33 C          62.9466   84.1834    9.5614 C.ar    1  UNL1       -0.0027
     34 C          62.8813   85.6335    9.9393 C.ar    1  UNL1        0.0189
     35 C          63.6720   90.6354   13.7914 C.3     1  UNL1        0.0372
     36 C          64.0835   91.4634   12.6103 C.3     1  UNL1        0.0060
     37 C          63.2606   89.8073   14.9724 C.3     1  UNL1        0.0060
     38 C          64.2332   91.6749   14.7157 C.3     1  UNL1        0.0060
@<TRIPOS>BOND
     1    19    20    1
     2    20    13    1
     3    13    14   ar
     4    14    15   ar
     5    15    21    1
     6    21    22    1
     7    15    16   ar
     8    16    17   ar
     9    17     7    1
    10     7     8   ar
    11     8     9   ar
    12     9    10   ar
    13    10     1    1
    14     1     2   am
    15     2     3    2
    16     2     4   am
    17     4    23    1
    18    23    24   ar
    19    24    25   ar
    20    25    35    1
    21    35    36    1
    22    35    37    1
    23    35    38    1
    24    25    26   ar
    25    26    27   ar
    26    27    28    1
    27    28    29   ar
    28    29    30   ar
    29    30    31   ar
    30    31    32    1
    31    31    33   ar
    32    33    34   ar
    33    10    11   ar
    34    11    12   ar
    35    17    18   ar
    36    18    13   ar
    37    12     7   ar
    38    27    23   ar
    39    34    28   ar
    40     1     5    1
    41     4     6    1
@<TRIPOS>MOLECULE
*****
 38 41 0 0 0
SMALL
GASTEIGER

@<TRIPOS>ATOM
      1 N          59.8032   88.9756    7.7200 N.am    1  UNL1       -0.2680
      2 C          60.7734   89.2072    8.8403 C.2     1  UNL1        0.3092
      3 O          61.6961   90.3892    8.8010 O.2     1  UNL1       -0.2521
      4 N          60.8209   88.2569    9.9999 N.am    1  UNL1       -0.2533
      5 H          59.1976   88.1998    7.7458 H       1  UNL1        0.1564
      6 H          60.2153   87.4811   10.0257 H       1  UNL1        0.1578
      7 C          59.6608   91.8266    4.2413 C.ar    1  UNL1        0.0361
      8 C          60.9674   91.2226    4.6629 C.ar    1  UNL1        0.0043
      9 C          61.0149   90.2722    5.8225 C.ar    1  UNL1        0.0148
     10 C          59.7558   89.9259    6.5605 C.ar    1  UNL1        0.0516
     11 C          58.4491   90.5300    6.1388 C.ar    1  UNL1        0.0148
     12 C          58.4016   91.4803    4.9792 C.ar    1  UNL1        0.0043
     13 C          58.9782   93.2860    0.6144 C.ar    1  UNL1        0.2311
     14 C          59.5182   94.6775    0.7626 C.ar    1  UNL1        0.1153
     15 C          60.1058   95.1188    2.0703 C.ar    1  UNL1        0.2311
     16 N          60.1534   94.1685    3.2298 N.ar    1  UNL1       -0.1923
     17 C          59.6133   92.7770    3.0817 C.ar    1  UNL1        0.1684
     18 N          59.0257   92.3358    1.7740 N.ar    1  UNL1       -0.1923
     19 C          57.0846   93.4166   -1.1596 C.3     1  UNL1        0.2542
     20 O          58.3906   92.8448   -0.6932 O.3     1  UNL1       -0.4560
     21 O          60.6459   96.5104    2.2183 O.3     1  UNL1       -0.4560
     22 C          62.0087   96.8462    1.6892 C.3     1  UNL1        0.2542
     23 C          61.7911   88.4885   11.1202 C.ar    1  UNL1        0.1380
     24 C          62.0465   89.7963   11.8091 C.ar    1  UNL1        0.0509
     25 C          63.0895   89.5691   12.8629 C.ar    1  UNL1        0.0810
     26 N          63.4786   88.1209   12.8253 N.ar    1  UNL1       -0.1683
     27 N          62.6761   87.4531   11.7483 N.ar    1  UNL1       -0.2162
     28 C          62.7464   86.0043   11.3664 C.ar    1  UNL1        0.0842
     29 C          62.8744   85.6143    9.9236 C.ar    1  UNL1        0.0189
     30 C          62.9448   84.1655    9.5416 C.ar    1  UNL1       -0.0027
     31 C          62.8871   83.1065   10.6024 C.ar    1  UNL1       -0.0218
     32 C          62.9574   81.6577   10.2206 C.3     1  UNL1        0.0310
     33 C          62.7591   83.4965   12.0452 C.ar    1  UNL1       -0.0027
     34 C          62.6887   84.9453   12.4272 C.ar    1  UNL1        0.0189
     35 C          63.6457   90.6077   13.7913 C.3     1  UNL1        0.0372
     36 C          63.2763   89.7537   14.9679 C.3     1  UNL1        0.0060
     37 C          64.0150   91.4617   12.6148 C.3     1  UNL1        0.0060
     38 C          64.2018   91.6463   14.7197 C.3     1  UNL1        0.0060
@<TRIPOS>BOND
     1    19    20    1
     2    20    13    1
     3    13    14   ar
     4    14    15   ar
     5    15    21    1
     6    21    22    1
     7    15    16   ar
     8    16    17   ar
     9    17     7    1
    10     7     8   ar
    11     8     9   ar
    12     9    10   ar
    13    10     1    1
    14     1     2   am
    15     2     3    2
    16     2     4   am
    17     4    23    1
    18    23    24   ar
    19    24    25   ar
    20    25    35    1
    21    35    36    1
    22    35    37    1
    23    35    38    1
    24    25    26   ar
    25    26    27   ar
    26    27    28    1
    27    28    29   ar
    28    29    30   ar
    29    30    31   ar
    30    31    32    1
    31    31    33   ar
    32    33    34   ar
    33    10    11   ar
    34    11    12   ar
    35    17    18   ar
    36    18    13   ar
    37    12     7   ar
    38    27    23   ar
    39    34    28   ar
    40     1     5    1
    41     4     6    1
@<TRIPOS>MOLECULE
*****
 38 41 0 0 0
SMALL
GASTEIGER

@<TRIPOS>ATOM
      1 N          58.9730   90.2328    7.2592 N.am    1  UNL1       -0.2680
      2 C          60.1199   89.8224    8.1344 C.2     1  UNL1        0.3092
      3 O          61.5299   90.0883    7.6969 O.2     1  UNL1       -0.2521
      4 N          59.8570   89.1459    9.4472 N.am    1  UNL1       -0.2533
      5 H          58.0476   90.0583    7.5464 H       1  UNL1        0.1564
      6 H          58.9316   88.9714    9.7344 H       1  UNL1        0.1578
      7 C          59.7620   92.2621    3.3210 C.ar    1  UNL1        0.0361
      8 C          60.8913   91.6272    4.0771 C.ar    1  UNL1        0.0043
      9 C          60.6283   90.9508    5.3899 C.ar    1  UNL1        0.0148
     10 C          59.2360   90.9092    5.9465 C.ar    1  UNL1        0.0516
     11 C          58.1067   91.5441    5.1904 C.ar    1  UNL1        0.0148
     12 C          58.3697   92.2206    3.8777 C.ar    1  UNL1        0.0043
     13 C          61.6342   94.2154    0.4176 C.ar    1  UNL1        0.2311
     14 C          60.5510   94.2914   -0.6172 C.ar    1  UNL1        0.1153
     15 C          59.2048   93.6910   -0.3392 C.ar    1  UNL1        0.2311
     16 N          58.9418   93.0146    0.9735 N.ar    1  UNL1       -0.1923
     17 C          60.0250   92.9386    2.0082 C.ar    1  UNL1        0.1684
     18 N          61.3712   93.5390    1.7303 N.ar    1  UNL1       -0.1923
     19 C          64.1819   93.9294   -0.0036 C.3     1  UNL1        0.2542
     20 O          62.9804   94.8158    0.1397 O.3     1  UNL1       -0.4560
     21 O          58.1215   93.7671   -1.3741 O.3     1  UNL1       -0.4560
     22 C          56.9037   92.9001   -1.2502 C.3     1  UNL1        0.2542
     23 C          61.0039   88.7354   10.3224 C.ar    1  UNL1        0.1380
     24 C          61.4504   89.4306   11.5744 C.ar    1  UNL1        0.0509
     25 C          62.6282   88.6825   12.1251 C.ar    1  UNL1        0.0810
     26 N          62.9096   87.5250   11.2134 N.ar    1  UNL1       -0.1683
     27 N          61.9057   87.5578   10.0994 N.ar    1  UNL1       -0.2162
     28 C          61.8189   86.5838    8.9619 C.ar    1  UNL1        0.0842
     29 C          63.0352   85.8146    8.5388 C.ar    1  UNL1        0.0189
     30 C          62.9485   84.8406    7.4013 C.ar    1  UNL1       -0.0027
     31 C          61.6455   84.6358    6.6869 C.ar    1  UNL1       -0.0218
     32 C          61.5588   83.6618    5.5495 C.3     1  UNL1        0.0310
     33 C          60.4293   85.4050    7.1101 C.ar    1  UNL1       -0.0027
     34 C          60.5159   86.3789    8.2475 C.ar    1  UNL1        0.0189
     35 C          63.3906   89.0308   13.3690 C.3     1  UNL1        0.0372
     36 C          63.7651   87.5888   13.5432 C.3     1  UNL1        0.0060
     37 C          63.0161   90.4728   13.1949 C.3     1  UNL1        0.0060
     38 C          64.1531   89.3790   14.6129 C.3     1  UNL1        0.0060
@<TRIPOS>BOND
     1    19    20    1
     2    20    13    1
     3    13    14   ar
     4    14    15   ar
     5    15    21    1
     6    21    22    1
     7    15    16   ar
     8    16    17   ar
     9    17     7    1
    10     7     8   ar
    11     8     9   ar
    12     9    10   ar
    13    10     1    1
    14     1     2   am
    15     2     3    2
    16     2     4   am
    17     4    23    1
    18    23    24   ar
    19    24    25   ar
    20    25    35    1
    21    35    36    1
    22    35    37    1
    23    35    38    1
    24    25    26   ar
    25    26    27   ar
    26    27    28    1
    27    28    29   ar
    28    29    30   ar
    29    30    31   ar
    30    31    32    1
    31    31    33   ar
    32    33    34   ar
    33    10    11   ar
    34    11    12   ar
    35    17    18   ar
    36    18    13   ar
    37    12     7   ar
    38    27    23   ar
    39    34    28   ar
    40     1     5    1
    41     4     6    1
@<TRIPOS>MOLECULE
*****
 38 41 0 0 0
SMALL
GASTEIGER

@<TRIPOS>ATOM
      1 N          58.9740   90.2379    7.2626 N.am    1  UNL1       -0.2680
      2 C          60.1214   89.8349    8.1407 C.2     1  UNL1        0.3092
      3 O          61.5311   90.0983    7.7009 O.2     1  UNL1       -0.2521
      4 N          59.8591   89.1685    9.4588 N.am    1  UNL1       -0.2533
      5 H          58.0488   90.0650    7.5514 H       1  UNL1        0.1564
      6 H          58.9339   88.9957    9.7475 H       1  UNL1        0.1578
      7 C          59.7609   92.2370    3.3086 C.ar    1  UNL1        0.0361
      8 C          60.8890   91.5999    4.0645 C.ar    1  UNL1        0.0043
      9 C          60.6267   90.9335    5.3826 C.ar    1  UNL1        0.0148
     10 C          59.2363   90.9042    5.9447 C.ar    1  UNL1        0.0516
     11 C          58.1082   91.5414    5.1887 C.ar    1  UNL1        0.0148
     12 C          58.3705   92.2077    3.8707 C.ar    1  UNL1        0.0043
     13 C          59.1884   93.6773   -0.3449 C.ar    1  UNL1        0.2311
     14 C          60.5475   94.2361   -0.6455 C.ar    1  UNL1        0.1153
     15 C          61.6445   94.1286    0.3720 C.ar    1  UNL1        0.2311
     16 N          61.3823   93.4623    1.6900 N.ar    1  UNL1       -0.1923
     17 C          60.0231   92.9034    1.9905 C.ar    1  UNL1        0.1684
     18 N          58.9262   93.0109    0.9731 N.ar    1  UNL1       -0.1923
     19 C          56.9018   92.8748   -1.2815 C.3     1  UNL1        0.2542
     20 O          58.0915   93.7847   -1.3623 O.3     1  UNL1       -0.4560
     21 O          63.0037   94.6875    0.0714 O.3     1  UNL1       -0.4560
     22 C          64.2288   93.8636    0.3364 C.3     1  UNL1        0.2542
     23 C          61.0065   88.7656   10.3369 C.ar    1  UNL1        0.1380
     24 C          61.4509   89.4689   11.5851 C.ar    1  UNL1        0.0509
     25 C          62.6300   88.7265   12.1406 C.ar    1  UNL1        0.0810
     26 N          62.9143   87.5644   11.2358 N.ar    1  UNL1       -0.1683
     27 N          61.9109   87.5886   10.1210 N.ar    1  UNL1       -0.2162
     28 C          61.8268   86.6079    8.9892 C.ar    1  UNL1        0.0842
     29 C          60.5249   86.3971    8.2747 C.ar    1  UNL1        0.0189
     30 C          60.4406   85.4165    7.1428 C.ar    1  UNL1       -0.0027
     31 C          61.6584   84.6464    6.7254 C.ar    1  UNL1       -0.0218
     32 C          61.5743   83.6658    5.5935 C.3     1  UNL1        0.0310
     33 C          62.9603   84.8572    7.4399 C.ar    1  UNL1       -0.0027
     34 C          63.0446   85.8378    8.5718 C.ar    1  UNL1        0.0189
     35 C          63.3912   89.0835   13.3829 C.3     1  UNL1        0.0372
     36 C          63.7657   87.6428   13.5675 C.3     1  UNL1        0.0060
     37 C          63.0166   90.5242   13.1983 C.3     1  UNL1        0.0060
     38 C          64.1523   89.4406   14.6251 C.3     1  UNL1        0.0060
@<TRIPOS>BOND
     1    19    20    1
     2    20    13    1
     3    13    14   ar
     4    14    15   ar
     5    15    21    1
     6    21    22    1
     7    15    16   ar
     8    16    17   ar
     9    17     7    1
    10     7     8   ar
    11     8     9   ar
    12     9    10   ar
    13    10     1    1
    14     1     2   am
    15     2     3    2
    16     2     4   am
    17     4    23    1
    18    23    24   ar
    19    24    25   ar
    20    25    35    1
    21    35    36    1
    22    35    37    1
    23    35    38    1
    24    25    26   ar
    25    26    27   ar
    26    27    28    1
    27    28    29   ar
    28    29    30   ar
    29    30    31   ar
    30    31    32    1
    31    31    33   ar
    32    33    34   ar
    33    10    11   ar
    34    11    12   ar
    35    17    18   ar
    36    18    13   ar
    37    12     7   ar
    38    27    23   ar
    39    34    28   ar
    40     1     5    1
    41     4     6    1
@<TRIPOS>MOLECULE
*****
 38 41 0 0 0
SMALL
GASTEIGER

@<TRIPOS>ATOM
      1 N          63.0386   90.6739   12.6108 N.am    1  UNL1       -0.2680
      2 C          64.1267   91.4348   11.9130 C.2     1  UNL1        0.3092
      3 O          65.1977   90.6967   11.1660 O.2     1  UNL1       -0.2521
      4 N          64.1438   92.9340   11.9622 N.am    1  UNL1       -0.2533
      5 H          62.3357   91.1584   13.1011 H       1  UNL1        0.1564
      6 H          63.4409   93.4185   12.4525 H       1  UNL1        0.1578
      7 C          62.9875   86.1766   12.4633 C.ar    1  UNL1        0.0361
      8 C          62.2613   86.9696   11.4174 C.ar    1  UNL1        0.0043
      9 C          62.2783   88.4688   11.4666 C.ar    1  UNL1        0.0148
     10 C          63.0216   89.1749   12.5616 C.ar    1  UNL1        0.0516
     11 C          63.7477   88.3818   13.6075 C.ar    1  UNL1        0.0148
     12 C          63.7307   86.8827   13.5583 C.ar    1  UNL1        0.0043
     13 C          63.5383   82.4601   11.1851 C.ar    1  UNL1        0.2311
     14 C          62.9364   81.6794   12.3157 C.ar    1  UNL1        0.1153
     15 C          62.3515   82.3978   13.4955 C.ar    1  UNL1        0.2311
     16 N          62.3686   83.8968   13.5447 N.ar    1  UNL1       -0.1923
     17 C          62.9704   84.6775   12.4141 C.ar    1  UNL1        0.1684
     18 N          63.5553   83.9591   11.2343 N.ar    1  UNL1       -0.1923
     19 C          63.5962   80.3937    9.6113 C.3     1  UNL1        0.2542
     20 O          64.1231   81.7417   10.0053 O.3     1  UNL1       -0.4560
     21 O          61.7497   81.6170   14.6261 O.3     1  UNL1       -0.4560
     22 C          60.6635   80.6190   14.3537 C.3     1  UNL1        0.2542
     23 C          65.2319   93.6949   11.2644 C.ar    1  UNL1        0.1380
     24 C          65.1074   94.4044    9.9486 C.ar    1  UNL1        0.0509
     25 C          66.4341   95.0279    9.6308 C.ar    1  UNL1        0.0810
     26 N          67.3786   94.7038   10.7502 N.ar    1  UNL1       -0.1683
     27 N          66.6356   93.8800   11.7598 N.ar    1  UNL1       -0.2162
     28 C          67.1976   93.3366   13.0400 C.ar    1  UNL1        0.0842
     29 C          66.8276   93.9683   14.3492 C.ar    1  UNL1        0.0189
     30 C          67.3896   93.4250   15.6294 C.ar    1  UNL1       -0.0027
     31 C          68.3216   92.2500   15.6004 C.ar    1  UNL1       -0.0218
     32 C          68.8836   91.7066   16.8806 C.3     1  UNL1        0.0310
     33 C          68.6916   91.6183   14.2912 C.ar    1  UNL1       -0.0027
     34 C          68.1296   92.1616   13.0110 C.ar    1  UNL1        0.0189
     35 C          66.7593   95.8340    8.4084 C.3     1  UNL1        0.0372
     36 C          65.6612   96.7967    8.7510 C.3     1  UNL1        0.0060
     37 C          67.8574   94.8714    8.0657 C.3     1  UNL1        0.0060
     38 C          67.0845   96.6401    7.1859 C.3     1  UNL1        0.0060
@<TRIPOS>BOND
     1    19    20    1
     2    20    13    1
     3    13    14   ar
     4    14    15   ar
     5    15    21    1
     6    21    22    1
     7    15    16   ar
     8    16    17   ar
     9    17     7    1
    10     7     8   ar
    11     8     9   ar
    12     9    10   ar
    13    10     1    1
    14     1     2   am
    15     2     3    2
    16     2     4   am
    17     4    23    1
    18    23    24   ar
    19    24    25   ar
    20    25    35    1
    21    35    36    1
    22    35    37    1
    23    35    38    1
    24    25    26   ar
    25    26    27   ar
    26    27    28    1
    27    28    29   ar
    28    29    30   ar
    29    30    31   ar
    30    31    32    1
    31    31    33   ar
    32    33    34   ar
    33    10    11   ar
    34    11    12   ar
    35    17    18   ar
    36    18    13   ar
    37    12     7   ar
    38    27    23   ar
    39    34    28   ar
    40     1     5    1
    41     4     6    1
@<TRIPOS>MOLECULE
*****
 38 41 0 0 0
SMALL
GASTEIGER

@<TRIPOS>ATOM
      1 N          63.0718   90.6817   12.7301 N.am    1  UNL1       -0.2680
      2 C          64.1400   91.4507   12.0107 C.2     1  UNL1        0.3092
      3 O          65.1903   90.7211   11.2267 O.2     1  UNL1       -0.2521
      4 N          64.1579   92.9492   12.0752 N.am    1  UNL1       -0.2533
      5 H          62.3824   91.1606   13.2446 H       1  UNL1        0.1564
      6 H          63.4686   93.4281   12.5897 H       1  UNL1        0.1578
      7 C          63.0182   86.1862   12.5365 C.ar    1  UNL1        0.0361
      8 C          62.2702   86.9899   11.5144 C.ar    1  UNL1        0.0043
      9 C          62.2881   88.4884   11.5789 C.ar    1  UNL1        0.0148
     10 C          63.0539   89.1833   12.6655 C.ar    1  UNL1        0.0516
     11 C          63.8019   88.3795   13.6876 C.ar    1  UNL1        0.0148
     12 C          63.7841   86.8811   13.6231 C.ar    1  UNL1        0.0043
     13 C          62.3806   82.3973   13.5304 C.ar    1  UNL1        0.2311
     14 C          62.9646   81.6907   12.3431 C.ar    1  UNL1        0.1153
     15 C          63.5664   82.4826   11.2203 C.ar    1  UNL1        0.2311
     16 N          63.5843   83.9811   11.2847 N.ar    1  UNL1       -0.1923
     17 C          63.0003   84.6877   12.4720 C.ar    1  UNL1        0.1684
     18 N          62.3985   83.8958   13.5948 N.ar    1  UNL1       -0.1923
     19 C          60.6673   80.6370   14.3764 C.3     1  UNL1        0.2542
     20 O          61.7788   81.6054   14.6532 O.3     1  UNL1       -0.4560
     21 O          64.1504   81.7759   10.0329 O.3     1  UNL1       -0.4560
     22 C          63.5791   80.4630    9.5858 C.3     1  UNL1        0.2542
     23 C          65.2261   93.7182   11.3558 C.ar    1  UNL1        0.1380
     24 C          65.0665   94.4375   10.0492 C.ar    1  UNL1        0.0509
     25 C          66.3833   95.0667    9.7025 C.ar    1  UNL1        0.0810
     26 N          67.3567   94.7362   10.7949 N.ar    1  UNL1       -0.1683
     27 N          66.6416   93.9028   11.8166 N.ar    1  UNL1       -0.2162
     28 C          67.2373   93.3510   13.0777 C.ar    1  UNL1        0.0842
     29 C          68.2155   92.2157   13.0109 C.ar    1  UNL1        0.0189
     30 C          68.8113   91.6638   14.2720 C.ar    1  UNL1       -0.0027
     31 C          68.4289   92.2472   15.6000 C.ar    1  UNL1       -0.0218
     32 C          69.0247   91.6953   16.8612 C.3     1  UNL1        0.0310
     33 C          67.4508   93.3824   15.6669 C.ar    1  UNL1       -0.0027
     34 C          66.8550   93.9343   14.4058 C.ar    1  UNL1        0.0189
     35 C          66.6753   95.8830    8.4784 C.3     1  UNL1        0.0372
     36 C          67.7700   94.9287    8.1032 C.3     1  UNL1        0.0060
     37 C          65.5806   96.8374    8.8537 C.3     1  UNL1        0.0060
     38 C          66.9673   96.6993    7.2544 C.3     1  UNL1        0.0060
@<TRIPOS>BOND
     1    19    20    1
     2    20    13    1
     3    13    14   ar
     4    14    15   ar
     5    15    21    1
     6    21    22    1
     7    15    16   ar
     8    16    17   ar
     9    17     7    1
    10     7     8   ar
    11     8     9   ar
    12     9    10   ar
    13    10     1    1
    14     1     2   am
    15     2     3    2
    16     2     4   am
    17     4    23    1
    18    23    24   ar
    19    24    25   ar
    20    25    35    1
    21    35    36    1
    22    35    37    1
    23    35    38    1
    24    25    26   ar
    25    26    27   ar
    26    27    28    1
    27    28    29   ar
    28    29    30   ar
    29    30    31   ar
    30    31    32    1
    31    31    33   ar
    32    33    34   ar
    33    10    11   ar
    34    11    12   ar
    35    17    18   ar
    36    18    13   ar
    37    12     7   ar
    38    27    23   ar
    39    34    28   ar
    40     1     5    1
    41     4     6    1
