@<TRIPOS>MOLECULE
*****
 31 33 0 0 0
SMALL
GASTEIGER

@<TRIPOS>ATOM
      1 N          65.3078   92.4941   11.6666 N.ar    1  UNL1       -0.2820
      2 C          66.0494   92.4198   12.9683 C.ar    1  UNL1        0.2577
      3 O          67.1791   93.3677   13.2430 O.2     1  UNL1       -0.2673
      4 C          65.6614   91.3977   13.9953 C.ar    1  UNL1        0.0366
      5 C          64.5318   90.4499   13.7206 C.ar    1  UNL1        0.0050
      6 C          63.7901   90.5241   12.4188 C.ar    1  UNL1        0.0158
      7 C          62.6605   89.5763   12.1442 C.ar    1  UNL1        0.0053
      8 C          61.9188   89.6506   10.8425 C.ar    1  UNL1        0.0715
      9 C          62.3068   90.6727    9.8155 C.ar    1  UNL1        0.0053
     10 C          63.4365   91.6206   10.0902 C.ar    1  UNL1        0.0172
     11 C          64.1781   91.5463   11.3919 C.ar    1  UNL1        0.0634
     12 C          64.1438   89.4277   14.7476 C.ar    1  UNL1        0.0344
     13 C          64.4513   87.9780   14.5163 C.ar    1  UNL1        0.0144
     14 C          64.0633   86.9558   15.5432 C.ar    1  UNL1        0.0579
     15 CL         64.3709   85.5060   15.3119 Cl      1  UNL1       -0.0822
     16 C          63.3678   87.3835   16.8015 C.ar    1  UNL1        0.0145
     17 C          63.0603   88.8333   17.0329 C.ar    1  UNL1        0.0375
     18 C          63.4483   89.8554   16.0059 C.ar    1  UNL1        0.1336
     19 O          63.1408   91.3052   16.2372 O.3     1  UNL1       -0.5055
     20 H          62.7063   91.5724   17.0233 H       1  UNL1        0.2922
     21 C          60.7891   88.7027   10.5677 C.3     1  UNL1        0.4186
     22 F          59.6595   87.7549   10.2930 F       1  UNL1       -0.1659
     23 F          61.7107   87.8389    9.7589 F       1  UNL1       -0.1659
     24 F          59.8675   89.5666   11.3766 F       1  UNL1       -0.1659
     25 C          65.6958   93.5163   10.6396 C.3     1  UNL1        0.2151
     26 N          68.4585   93.4941    9.4704 N.1     1  UNL1       -0.1938
     27 C          67.0772   93.5052   10.0550 C.1     1  UNL1        0.0986
     28 C          66.4031   91.3234   15.2970 C.3     1  UNL1        0.0629
     29 C          66.4297   92.5103   16.2139 C.3     1  UNL1        0.1420
     30 O          65.1664   92.9749   16.8759 O.3     1  UNL1       -0.3816
     31 H          64.5505   93.3037   16.2025 H       1  UNL1        0.2105
@<TRIPOS>BOND
     1    26    27    3
     2    27    25    1
     3    25     1    1
     4     1     2   ar
     5     2     3    2
     6     2     4   ar
     7     4    28    1
     8    28    29    1
     9    29    30    1
    10     4     5   ar
    11     5    12    1
    12    12    13   ar
    13    13    14   ar
    14    14    15    1
    15    14    16   ar
    16    16    17   ar
    17    17    18   ar
    18    18    19    1
    19     5     6   ar
    20     6     7   ar
    21     7     8   ar
    22     8    21    1
    23    21    22    1
    24    21    23    1
    25    21    24    1
    26     8     9   ar
    27     9    10   ar
    28    10    11   ar
    29    11     1   ar
    30    18    12   ar
    31    11     6   ar
    32    30    31    1
    33    19    20    1
@<TRIPOS>MOLECULE
*****
 31 33 0 0 0
SMALL
GASTEIGER

@<TRIPOS>ATOM
      1 N          63.8134   88.1446   13.5469 N.ar    1  UNL1       -0.2820
      2 C          63.4214   89.1310   12.4871 C.ar    1  UNL1        0.2577
      3 O          63.7401   90.5864   12.6621 O.2     1  UNL1       -0.2673
      4 C          62.7106   88.6622   11.2521 C.ar    1  UNL1        0.0366
      5 C          62.3919   87.2070   11.0770 C.ar    1  UNL1        0.0050
      6 C          62.7840   86.2205   12.1369 C.ar    1  UNL1        0.0158
      7 C          62.4653   84.7653   11.9617 C.ar    1  UNL1        0.0053
      8 C          62.8573   83.7789   13.0216 C.ar    1  UNL1        0.0715
      9 C          63.5681   84.2477   14.2565 C.ar    1  UNL1        0.0053
     10 C          63.8868   85.7029   14.4316 C.ar    1  UNL1        0.0172
     11 C          63.4947   86.6893   13.3718 C.ar    1  UNL1        0.0634
     12 C          61.6812   86.7382    9.8421 C.ar    1  UNL1        0.0344
     13 C          62.4278   85.9677    8.7939 C.ar    1  UNL1        0.0144
     14 C          61.7171   85.4989    7.5590 C.ar    1  UNL1        0.0579
     15 CL         62.4638   84.7283    6.5107 Cl      1  UNL1       -0.0822
     16 C          60.2596   85.8006    7.3722 C.ar    1  UNL1        0.0145
     17 C          59.5129   86.5711    8.4205 C.ar    1  UNL1        0.0375
     18 C          60.2237   87.0399    9.6554 C.ar    1  UNL1        0.1336
     19 O          59.4770   87.8104   10.7036 O.3     1  UNL1       -0.5055
     20 H          58.5666   87.9989   10.5870 H       1  UNL1        0.2922
     21 C          62.5387   82.3236   12.8465 C.3     1  UNL1        0.4186
     22 F          62.2200   80.8683   12.6714 F       1  UNL1       -0.1659
     23 F          62.8586   82.4294   11.3849 F       1  UNL1       -0.1659
     24 F          62.2187   82.2178   14.3081 F       1  UNL1       -0.1659
     25 C          64.5242   88.6135   14.7818 C.3     1  UNL1        0.2151
     26 N          63.1711   90.5250   16.6568 N.1     1  UNL1       -0.1938
     27 C          63.8476   89.5692   15.7193 C.1     1  UNL1        0.0986
     28 C          62.3185   89.6487   10.1923 C.3     1  UNL1        0.0629
     29 C          61.2347   90.6496   10.4633 C.3     1  UNL1        0.1420
     30 O          59.9307   90.5607    9.7275 O.3     1  UNL1       -0.3816
     31 H          60.0790   90.7334    8.7846 H       1  UNL1        0.2105
@<TRIPOS>BOND
     1    26    27    3
     2    27    25    1
     3    25     1    1
     4     1     2   ar
     5     2     3    2
     6     2     4   ar
     7     4    28    1
     8    28    29    1
     9    29    30    1
    10     4     5   ar
    11     5    12    1
    12    12    13   ar
    13    13    14   ar
    14    14    15    1
    15    14    16   ar
    16    16    17   ar
    17    17    18   ar
    18    18    19    1
    19     5     6   ar
    20     6     7   ar
    21     7     8   ar
    22     8    21    1
    23    21    22    1
    24    21    23    1
    25    21    24    1
    26     8     9   ar
    27     9    10   ar
    28    10    11   ar
    29    11     1   ar
    30    18    12   ar
    31    11     6   ar
    32    30    31    1
    33    19    20    1
@<TRIPOS>MOLECULE
*****
 31 33 0 0 0
SMALL
GASTEIGER

@<TRIPOS>ATOM
      1 N          63.4702   88.3262   12.7626 N.ar    1  UNL1       -0.2820
      2 C          64.0215   87.4808   13.8722 C.ar    1  UNL1        0.2577
      3 O          64.7037   88.1285   15.0407 O.2     1  UNL1       -0.2673
      4 C          63.8908   85.9877   13.8135 C.ar    1  UNL1        0.0366
      5 C          63.2086   85.3399   12.6452 C.ar    1  UNL1        0.0050
      6 C          62.6572   86.1853   11.5355 C.ar    1  UNL1        0.0158
      7 C          61.9751   85.5376   10.3671 C.ar    1  UNL1        0.0053
      8 C          61.4237   86.3829    9.2575 C.ar    1  UNL1        0.0715
      9 C          61.5545   87.8761    9.3163 C.ar    1  UNL1        0.0053
     10 C          62.2366   88.5238   10.4846 C.ar    1  UNL1        0.0172
     11 C          62.7880   87.6784   11.5942 C.ar    1  UNL1        0.0634
     12 C          63.0779   83.8468   12.5864 C.ar    1  UNL1        0.0344
     13 C          62.0425   83.1512   13.4196 C.ar    1  UNL1        0.0144
     14 C          61.9118   81.6581   13.3609 C.ar    1  UNL1        0.0579
     15 CL         60.8764   80.9626   14.1942 Cl      1  UNL1       -0.0822
     16 C          62.8163   80.8605   12.4690 C.ar    1  UNL1        0.0145
     17 C          63.8517   81.5561   11.6357 C.ar    1  UNL1        0.0375
     18 C          63.9825   83.0492   11.6944 C.ar    1  UNL1        0.1336
     19 O          65.0178   83.7447   10.8612 O.3     1  UNL1       -0.5055
     20 H          65.5829   83.2465   10.3040 H       1  UNL1        0.2922
     21 C          60.7416   85.7352    8.0891 C.3     1  UNL1        0.4186
     22 F          60.0595   85.0875    6.9207 F       1  UNL1       -0.1659
     23 F          62.0568   85.1798    7.6291 F       1  UNL1       -0.1659
     24 F          59.4263   86.2906    8.5491 F       1  UNL1       -0.1659
     25 C          63.6010   89.8193   12.8214 C.3     1  UNL1        0.2151
     26 N          63.4951   91.2315   15.4661 N.1     1  UNL1       -0.1938
     27 C          63.5480   90.5254   14.1438 C.1     1  UNL1        0.0986
     28 C          64.4422   85.1423   14.9232 C.3     1  UNL1        0.0629
     29 C          63.7202   85.0632   16.2356 C.3     1  UNL1        0.1420
     30 O          62.2381   85.2874   16.2908 O.3     1  UNL1       -0.3816
     31 H          62.0410   86.2067   16.0522 H       1  UNL1        0.2105
@<TRIPOS>BOND
     1    26    27    3
     2    27    25    1
     3    25     1    1
     4     1     2   ar
     5     2     3    2
     6     2     4   ar
     7     4    28    1
     8    28    29    1
     9    29    30    1
    10     4     5   ar
    11     5    12    1
    12    12    13   ar
    13    13    14   ar
    14    14    15    1
    15    14    16   ar
    16    16    17   ar
    17    17    18   ar
    18    18    19    1
    19     5     6   ar
    20     6     7   ar
    21     7     8   ar
    22     8    21    1
    23    21    22    1
    24    21    23    1
    25    21    24    1
    26     8     9   ar
    27     9    10   ar
    28    10    11   ar
    29    11     1   ar
    30    18    12   ar
    31    11     6   ar
    32    30    31    1
    33    19    20    1
@<TRIPOS>MOLECULE
*****
 31 33 0 0 0
SMALL
GASTEIGER

@<TRIPOS>ATOM
      1 N          63.6682   85.6242   14.4273 N.ar    1  UNL1       -0.2820
      2 C          63.2627   84.3296   13.7872 C.ar    1  UNL1        0.2577
      3 O          63.3569   83.0483   14.5614 O.2     1  UNL1       -0.2673
      4 C          62.7628   84.3163   12.3730 C.ar    1  UNL1        0.0366
      5 C          62.6685   85.5976   11.5988 C.ar    1  UNL1        0.0050
      6 C          63.0741   86.8922   12.2389 C.ar    1  UNL1        0.0158
      7 C          62.9798   88.1735   11.4647 C.ar    1  UNL1        0.0053
      8 C          63.3853   89.4680   12.1047 C.ar    1  UNL1        0.0715
      9 C          63.8852   89.4813   13.5189 C.ar    1  UNL1        0.0053
     10 C          63.9795   88.2000   14.2931 C.ar    1  UNL1        0.0172
     11 C          63.5739   86.9055   13.6531 C.ar    1  UNL1        0.0634
     12 C          62.1687   85.5843   10.1846 C.ar    1  UNL1        0.0344
     13 C          60.8433   86.2027    9.8518 C.ar    1  UNL1        0.0144
     14 C          60.3434   86.1894    8.4376 C.ar    1  UNL1        0.0579
     15 CL         59.0179   86.8078    8.1048 Cl      1  UNL1       -0.0822
     16 C          61.1690   85.5578    7.3562 C.ar    1  UNL1        0.0145
     17 C          62.4946   84.9394    7.6890 C.ar    1  UNL1        0.0375
     18 C          62.9944   84.9527    9.1032 C.ar    1  UNL1        0.1336
     19 O          64.3198   84.3343    9.4361 O.3     1  UNL1       -0.5055
     20 H          64.8356   83.9398    8.7606 H       1  UNL1        0.2922
     21 C          63.2911   90.7494   11.3305 C.3     1  UNL1        0.4186
     22 F          63.1968   92.0307   10.5564 F       1  UNL1       -0.1659
     23 F          63.5633   91.5268   12.5841 F       1  UNL1       -0.1659
     24 F          63.0189   89.9720   10.0769 F       1  UNL1       -0.1659
     25 C          64.1680   85.6374   15.8415 C.3     1  UNL1        0.2151
     26 N          62.2978   86.3153   18.0871 N.1     1  UNL1       -0.1938
     27 C          63.2329   85.9764   16.9643 C.1     1  UNL1        0.0986
     28 C          62.3573   83.0217   11.7330 C.3     1  UNL1        0.0629
     29 C          63.3940   81.9858   11.4137 C.3     1  UNL1        0.1420
     30 O          64.8415   82.3719   11.3380 O.3     1  UNL1       -0.3816
     31 H          64.9770   82.9734   10.5892 H       1  UNL1        0.2105
@<TRIPOS>BOND
     1    26    27    3
     2    27    25    1
     3    25     1    1
     4     1     2   ar
     5     2     3    2
     6     2     4   ar
     7     4    28    1
     8    28    29    1
     9    29    30    1
    10     4     5   ar
    11     5    12    1
    12    12    13   ar
    13    13    14   ar
    14    14    15    1
    15    14    16   ar
    16    16    17   ar
    17    17    18   ar
    18    18    19    1
    19     5     6   ar
    20     6     7   ar
    21     7     8   ar
    22     8    21    1
    23    21    22    1
    24    21    23    1
    25    21    24    1
    26     8     9   ar
    27     9    10   ar
    28    10    11   ar
    29    11     1   ar
    30    18    12   ar
    31    11     6   ar
    32    30    31    1
    33    19    20    1
@<TRIPOS>MOLECULE
*****
 31 33 0 0 0
SMALL
GASTEIGER

@<TRIPOS>ATOM
      1 N          64.0932   89.4753   13.7169 N.ar    1  UNL1       -0.2820
      2 C          63.4907   90.2486   12.5816 C.ar    1  UNL1        0.2577
      3 O          63.6013   91.7443   12.5507 O.2     1  UNL1       -0.2673
      4 C          62.7776   89.5263   11.4771 C.ar    1  UNL1        0.0366
      5 C          62.6670   88.0308   11.5080 C.ar    1  UNL1        0.0050
      6 C          63.2695   87.2574   12.6433 C.ar    1  UNL1        0.0158
      7 C          63.1589   85.7618   12.6741 C.ar    1  UNL1        0.0053
      8 C          63.7615   84.9885   13.8094 C.ar    1  UNL1        0.0715
      9 C          64.4746   85.7108   14.9138 C.ar    1  UNL1        0.0053
     10 C          64.5852   87.2063   14.8830 C.ar    1  UNL1        0.0172
     11 C          63.9827   87.9796   13.7477 C.ar    1  UNL1        0.0634
     12 C          61.9538   87.3085   10.4035 C.ar    1  UNL1        0.0344
     13 C          62.7401   86.6004    9.3404 C.ar    1  UNL1        0.0144
     14 C          62.0269   85.8781    8.2359 C.ar    1  UNL1        0.0579
     15 CL         62.8132   85.1700    7.1727 Cl      1  UNL1       -0.0822
     16 C          60.5276   85.8640    8.1947 C.ar    1  UNL1        0.0145
     17 C          59.7413   86.5721    9.2579 C.ar    1  UNL1        0.0375
     18 C          60.4544   87.2944   10.3623 C.ar    1  UNL1        0.1336
     19 O          59.6682   88.0025   11.4255 O.3     1  UNL1       -0.5055
     20 H          58.7316   87.9937   11.3998 H       1  UNL1        0.2922
     21 C          63.6509   83.4929   13.8403 C.3     1  UNL1        0.4186
     22 F          63.5403   81.9973   13.8711 F       1  UNL1       -0.1659
     23 F          64.1171   83.4290   12.4161 F       1  UNL1       -0.1659
     24 F          63.1846   83.5567   15.2645 F       1  UNL1       -0.1659
     25 C          64.8064   90.1975   14.8213 C.3     1  UNL1        0.2151
     26 N          67.3198   91.7271   14.2353 N.1     1  UNL1       -0.1938
     27 C          66.0631   90.9624   14.5283 C.1     1  UNL1        0.0986
     28 C          62.1750   90.2997   10.3418 C.3     1  UNL1        0.0629
     29 C          60.6957   90.5448   10.3029 C.3     1  UNL1        0.1420
     30 O          59.8972   90.1249    9.1046 O.3     1  UNL1       -0.3816
     31 H          60.1689   90.6493    8.3351 H       1  UNL1        0.2105
@<TRIPOS>BOND
     1    26    27    3
     2    27    25    1
     3    25     1    1
     4     1     2   ar
     5     2     3    2
     6     2     4   ar
     7     4    28    1
     8    28    29    1
     9    29    30    1
    10     4     5   ar
    11     5    12    1
    12    12    13   ar
    13    13    14   ar
    14    14    15    1
    15    14    16   ar
    16    16    17   ar
    17    17    18   ar
    18    18    19    1
    19     5     6   ar
    20     6     7   ar
    21     7     8   ar
    22     8    21    1
    23    21    22    1
    24    21    23    1
    25    21    24    1
    26     8     9   ar
    27     9    10   ar
    28    10    11   ar
    29    11     1   ar
    30    18    12   ar
    31    11     6   ar
    32    30    31    1
    33    19    20    1
