@<TRIPOS>MOLECULE
*****
 13 14 0 0 0
SMALL
GASTEIGER

@<TRIPOS>ATOM
      1 C          63.1620   91.0333   10.3894 C.3     1  UNL1        0.1248
      2 N          63.8926   91.2919   11.6737 N.am    1  UNL1       -0.2077
      3 C          65.0625   92.2306   11.6952 C.2     1  UNL1        0.2732
      4 O          65.5016   92.9107   10.4323 O.2     1  UNL1       -0.2680
      5 C          65.7931   92.4892   12.9794 C.2     1  UNL1        0.1558
      6 N          66.9722   93.3568   13.3062 N.2     1  UNL1       -0.2203
      7 C          67.2618   93.2129   14.7709 C.2     1  UNL1        0.1960
      8 N          66.2616   92.2563   15.3494 N.2     1  UNL1       -0.2251
      9 C          65.3539   91.8091   14.2422 C.3     1  UNL1        0.2286
     10 N          64.1841   90.8704   14.2207 N.am    1  UNL1       -0.2389
     11 C          63.7449   90.1902   15.4835 C.3     1  UNL1        0.1186
     12 C          63.4535   90.6118   12.9364 C.2     1  UNL1        0.3149
     13 O          62.2837   89.6731   12.9150 O.2     1  UNL1       -0.2519
@<TRIPOS>BOND
     1     1     2    1
     2     2     3   am
     3     3     4    2
     4     3     5    1
     5     5     6    2
     6     6     7    1
     7     7     8    2
     8     8     9    1
     9     9    10    1
    10    10    11    1
    11    10    12   am
    12    12    13    2
    13    12     2   am
    14     9     5    1
@<TRIPOS>MOLECULE
*****
 13 14 0 0 0
SMALL
GASTEIGER

@<TRIPOS>ATOM
      1 C          63.8488   90.3097   15.4790 C.3     1  UNL1        0.1248
      2 N          64.2112   90.9415   14.1676 N.am    1  UNL1       -0.2077
      3 C          65.3514   91.9135   14.0930 C.2     1  UNL1        0.2732
      4 O          66.1291   92.2535   15.3298 O.2     1  UNL1       -0.2680
      5 C          65.7137   92.5452   12.7817 C.2     1  UNL1        0.1558
      6 N          66.7791   93.5309   12.4029 N.2     1  UNL1       -0.2203
      7 C          66.6597   93.8000   10.9321 C.2     1  UNL1        0.1960
      8 N          65.5206   92.9806   10.4019 N.2     1  UNL1       -0.2251
      9 C          64.9360   92.2051   11.5450 C.3     1  UNL1        0.2286
     10 N          63.7959   91.2332   11.6196 N.am    1  UNL1       -0.2389
     11 C          63.0181   90.8931   10.3829 C.3     1  UNL1        0.1186
     12 C          63.4335   90.6015   12.9309 C.2     1  UNL1        0.3149
     13 O          62.2933   89.6296   13.0055 O.2     1  UNL1       -0.2519
@<TRIPOS>BOND
     1     1     2    1
     2     2     3   am
     3     3     4    2
     4     3     5    1
     5     5     6    2
     6     6     7    1
     7     7     8    2
     8     8     9    1
     9     9    10    1
    10    10    11    1
    11    10    12   am
    12    12    13    2
    13    12     2   am
    14     9     5    1
@<TRIPOS>MOLECULE
*****
 13 14 0 0 0
SMALL
GASTEIGER

@<TRIPOS>ATOM
      1 C          62.7390   89.6405   12.3531 C.3     1  UNL1        0.1248
      2 N          63.8030   90.6662   12.6107 N.am    1  UNL1       -0.2077
      3 C          64.4893   90.7163   13.9436 C.2     1  UNL1        0.2732
      4 O          64.1118   89.7409   15.0188 O.2     1  UNL1       -0.2680
      5 C          65.5532   91.7419   14.2012 C.2     1  UNL1        0.1558
      6 N          66.3975   92.0312   15.4067 N.2     1  UNL1       -0.2203
      7 C          67.2969   93.1854   15.0765 C.2     1  UNL1        0.1960
      8 N          67.0083   93.6094   13.6669 N.2     1  UNL1       -0.2251
      9 C          65.9306   92.7173   13.1259 C.3     1  UNL1        0.2286
     10 N          65.2443   92.6671   11.7931 N.am    1  UNL1       -0.2389
     11 C          65.6218   93.6425   10.7179 C.3     1  UNL1        0.1186
     12 C          64.1804   91.6415   11.5356 C.2     1  UNL1        0.3149
     13 O          63.4941   91.5913   10.2027 O.2     1  UNL1       -0.2519
@<TRIPOS>BOND
     1     1     2    1
     2     2     3   am
     3     3     4    2
     4     3     5    1
     5     5     6    2
     6     6     7    1
     7     7     8    2
     8     8     9    1
     9     9    10    1
    10    10    11    1
    11    10    12   am
    12    12    13    2
    13    12     2   am
    14     9     5    1
@<TRIPOS>MOLECULE
*****
 13 14 0 0 0
SMALL
GASTEIGER

@<TRIPOS>ATOM
      1 C          65.2973   92.3844   10.8381 C.3     1  UNL1        0.1248
      2 N          65.0406   91.9878   12.2618 N.am    1  UNL1       -0.2077
      3 C          63.9097   91.0583   12.5891 C.2     1  UNL1        0.2732
      4 O          63.0354   90.5255   11.4928 O.2     1  UNL1       -0.2680
      5 C          63.6530   90.6616   14.0128 C.2     1  UNL1        0.1558
      6 N          62.6210   89.7688   14.6355 N.2     1  UNL1       -0.2203
      7 C          62.8574   89.7499   16.1166 C.2     1  UNL1        0.1960
      8 N          64.0355   90.6309   16.4093 N.2     1  UNL1       -0.2251
      9 C          64.5273   91.1945   15.1091 C.3     1  UNL1        0.2286
     10 N          65.6582   92.1239   14.7817 N.am    1  UNL1       -0.2389
     11 C          66.5324   92.6567   15.8779 C.3     1  UNL1        0.1186
     12 C          65.9148   92.5205   13.3580 C.2     1  UNL1        0.3149
     13 O          67.0457   93.4501   13.0307 O.2     1  UNL1       -0.2519
@<TRIPOS>BOND
     1     1     2    1
     2     2     3   am
     3     3     4    2
     4     3     5    1
     5     5     6    2
     6     6     7    1
     7     7     8    2
     8     8     9    1
     9     9    10    1
    10    10    11    1
    11    10    12   am
    12    12    13    2
    13    12     2   am
    14     9     5    1
@<TRIPOS>MOLECULE
*****
 13 14 0 0 0
SMALL
GASTEIGER

@<TRIPOS>ATOM
      1 C          62.7568   89.4518   12.2728 C.3     1  UNL1        0.1248
      2 N          63.7561   90.5586   12.4360 N.am    1  UNL1       -0.2077
      3 C          64.0129   91.5100   11.3050 C.2     1  UNL1        0.2732
      4 O          63.2704   91.3544   10.0109 O.2     1  UNL1       -0.2680
      5 C          65.0121   92.6167   11.4682 C.2     1  UNL1        0.1558
      6 N          65.4724   93.6987   10.5368 N.2     1  UNL1       -0.2203
      7 C          66.4992   94.5229   11.2554 C.2     1  UNL1        0.1960
      8 N          66.6736   93.9503   12.6308 N.2     1  UNL1       -0.2251
      9 C          65.7545   92.7722   12.7623 C.3     1  UNL1        0.2286
     10 N          65.4976   91.8209   13.8932 N.am    1  UNL1       -0.2389
     11 C          66.2400   91.9763   15.1873 C.3     1  UNL1        0.1186
     12 C          64.4984   90.7141   13.7300 C.2     1  UNL1        0.3149
     13 O          64.2416   89.7628   14.8611 O.2     1  UNL1       -0.2519
@<TRIPOS>BOND
     1     1     2    1
     2     2     3   am
     3     3     4    2
     4     3     5    1
     5     5     6    2
     6     6     7    1
     7     7     8    2
     8     8     9    1
     9     9    10    1
    10    10    11    1
    11    10    12   am
    12    12    13    2
    13    12     2   am
    14     9     5    1
@<TRIPOS>MOLECULE
*****
 13 14 0 0 0
SMALL
GASTEIGER

@<TRIPOS>ATOM
      1 C          67.0158   93.6658   14.1401 C.3     1  UNL1        0.1248
      2 N          65.8938   92.6725   14.2095 N.am    1  UNL1       -0.2077
      3 C          65.4036   92.1867   15.5414 C.2     1  UNL1        0.2732
      4 O          66.0353   92.6942   16.8037 O.2     1  UNL1       -0.2680
      5 C          64.2818   91.1934   15.6108 C.2     1  UNL1        0.1558
      6 N          63.5918   90.5381   16.7703 N.2     1  UNL1       -0.2203
      7 C          62.5337   89.6256   16.2246 C.2     1  UNL1        0.1960
      8 N          62.5698   89.7170   14.7278 N.2     1  UNL1       -0.2251
      9 C          63.6502   90.6859   14.3484 C.3     1  UNL1        0.2286
     10 N          64.1404   91.1717   13.0167 N.am    1  UNL1       -0.2389
     11 C          63.5088   90.6643   11.7543 C.3     1  UNL1        0.1186
     12 C          65.2623   92.1650   12.9473 C.2     1  UNL1        0.3149
     13 O          65.7525   92.6508   11.6154 O.2     1  UNL1       -0.2519
@<TRIPOS>BOND
     1     1     2    1
     2     2     3   am
     3     3     4    2
     4     3     5    1
     5     5     6    2
     6     6     7    1
     7     7     8    2
     8     8     9    1
     9     9    10    1
    10    10    11    1
    11    10    12   am
    12    12    13    2
    13    12     2   am
    14     9     5    1
@<TRIPOS>MOLECULE
*****
 13 14 0 0 0
SMALL
GASTEIGER

@<TRIPOS>ATOM
      1 C          63.1883   84.5415    9.6970 C.3     1  UNL1        0.1248
      2 N          63.1038   84.0482   11.1112 N.am    1  UNL1       -0.2077
      3 C          62.9165   85.0233   12.2356 C.2     1  UNL1        0.2732
      4 O          62.8136   86.4915   11.9459 O.2     1  UNL1       -0.2680
      5 C          62.8320   84.5300   13.6497 C.2     1  UNL1        0.1558
      6 N          62.6510   85.2483   14.9540 N.2     1  UNL1       -0.2203
      7 C          62.6419   84.2240   16.0498 C.2     1  UNL1        0.1960
      8 N          62.8174   82.8727   15.4227 N.2     1  UNL1       -0.2251
      9 C          62.9349   83.0619   13.9393 C.3     1  UNL1        0.2286
     10 N          63.1222   82.0869   12.8149 N.am    1  UNL1       -0.2389
     11 C          63.2251   80.6187   13.1045 C.3     1  UNL1        0.1186
     12 C          63.2067   82.5801   11.4008 C.2     1  UNL1        0.3149
     13 O          63.3941   81.6051   10.2764 O.2     1  UNL1       -0.2519
@<TRIPOS>BOND
     1     1     2    1
     2     2     3   am
     3     3     4    2
     4     3     5    1
     5     5     6    2
     6     6     7    1
     7     7     8    2
     8     8     9    1
     9     9    10    1
    10    10    11    1
    11    10    12   am
    12    12    13    2
    13    12     2   am
    14     9     5    1
@<TRIPOS>MOLECULE
*****
 13 14 0 0 0
SMALL
GASTEIGER

@<TRIPOS>ATOM
      1 C          64.2189   83.0755   12.6571 C.3     1  UNL1        0.1248
      2 N          63.4880   84.0094   11.7385 N.am    1  UNL1       -0.2077
      3 C          62.5513   85.0361   12.3030 C.2     1  UNL1        0.2732
      4 O          62.3455   85.1288   13.7859 O.2     1  UNL1       -0.2680
      5 C          61.8205   85.9700   11.3844 C.2     1  UNL1        0.1558
      6 N          60.8412   87.0752   11.6483 N.2     1  UNL1       -0.2203
      7 C          60.4419   87.6655   10.3284 C.2     1  UNL1        0.1960
      8 N          61.1744   86.9252    9.2488 N.2     1  UNL1       -0.2251
      9 C          62.0264   85.8773    9.9015 C.3     1  UNL1        0.2286
     10 N          62.9631   84.8506    9.3371 N.am    1  UNL1       -0.2389
     11 C          63.1690   84.7579    7.8542 C.3     1  UNL1        0.1186
     12 C          63.6939   83.9167   10.2557 C.2     1  UNL1        0.3149
     13 O          64.6306   82.8900    9.6912 O.2     1  UNL1       -0.2519
@<TRIPOS>BOND
     1     1     2    1
     2     2     3   am
     3     3     4    2
     4     3     5    1
     5     5     6    2
     6     6     7    1
     7     7     8    2
     8     8     9    1
     9     9    10    1
    10    10    11    1
    11    10    12   am
    12    12    13    2
    13    12     2   am
    14     9     5    1
@<TRIPOS>MOLECULE
*****
 13 14 0 0 0
SMALL
GASTEIGER

@<TRIPOS>ATOM
      1 C          66.5072   93.3644   13.0322 C.3     1  UNL1        0.1248
      2 N          65.4093   92.3433   12.9825 N.am    1  UNL1       -0.2077
      3 C          64.7133   92.0530   11.6858 C.2     1  UNL1        0.2732
      4 O          65.1151   92.7837   10.4389 O.2     1  UNL1       -0.2680
      5 C          63.6155   91.0321   11.6361 C.2     1  UNL1        0.1558
      6 N          62.7547   90.5378   10.5115 N.2     1  UNL1       -0.2203
      7 C          61.8210   89.5017   11.0633 C.2     1  UNL1        0.1960
      8 N          62.1047   89.3556   12.5290 N.2     1  UNL1       -0.2251
      9 C          63.2138   90.3014   12.8830 C.3     1  UNL1        0.2286
     10 N          63.9098   90.5917   14.1796 N.am    1  UNL1       -0.2389
     11 C          63.5081   89.8611   15.4265 C.3     1  UNL1        0.1186
     12 C          65.0076   91.6127   14.2293 C.2     1  UNL1        0.3149
     13 O          65.7036   91.9030   15.5260 O.2     1  UNL1       -0.2519
@<TRIPOS>BOND
     1     1     2    1
     2     2     3   am
     3     3     4    2
     4     3     5    1
     5     5     6    2
     6     6     7    1
     7     7     8    2
     8     8     9    1
     9     9    10    1
    10    10    11    1
    11    10    12   am
    12    12    13    2
    13    12     2   am
    14     9     5    1
