@<TRIPOS>MOLECULE
*****
 29 32 0 0 0
SMALL
GASTEIGER

@<TRIPOS>ATOM
      1 N          62.3471   88.8967    9.8793 N.am    1  UNL1       -0.2791
      2 C          62.0727   89.8801   10.9781 C.2     1  UNL1        0.2526
      3 O          60.6698   90.3442   11.2363 O.2     1  UNL1       -0.2697
      4 H          63.2678   88.5921    9.7098 H       1  UNL1        0.1552
      5 C          59.3073   88.7977    7.3297 C.ar    1  UNL1        0.0698
      6 C          58.9617   87.3384    7.3572 C.ar    1  UNL1        0.0119
      7 C          59.7445   86.3985    8.2254 C.ar    1  UNL1        0.0195
      8 C          60.8729   86.9179    9.0661 C.ar    1  UNL1        0.0790
      9 C          61.2186   88.3772    9.0386 C.ar    1  UNL1        0.0676
     10 C          60.4358   89.3172    8.1704 C.ar    1  UNL1        0.0264
     11 N          61.6557   85.9779    9.9343 N.ar    1  UNL1       -0.2852
     12 C          61.5360   85.8469   11.4238 C.ar    1  UNL1        0.1023
     13 C          62.5020   84.7920   11.8755 C.ar    1  UNL1        0.1196
     14 N          63.2187   84.2710   10.6652 N.ar    1  UNL1       -0.2220
     15 C          62.6957   85.0040    9.4655 C.ar    1  UNL1        0.1829
     16 N          57.7417   90.6776    5.5934 N.1     1  UNL1       -0.1908
     17 C          58.5245   89.7377    6.4615 C.1     1  UNL1        0.1005
     18 C          63.2012   90.3996   11.8188 C.ar    1  UNL1        0.0919
     19 C          63.5176   89.7504   13.1335 C.ar    1  UNL1        0.1066
     20 N          64.6461   90.2699   13.9741 N.ar    1  UNL1       -0.2249
     21 C          65.4581   91.4386   13.5001 C.ar    1  UNL1        0.1623
     22 N          65.1417   92.0878   12.1854 N.ar    1  UNL1       -0.2249
     23 C          64.0132   91.5684   11.3448 C.ar    1  UNL1        0.1066
     24 C          66.5866   91.9581   14.3408 C.ar    1  UNL1        0.0358
     25 C          67.9870   91.9511   13.8034 C.ar    1  UNL1        0.0030
     26 C          69.1154   92.4706   14.6441 C.ar    1  UNL1        0.0001
     27 C          68.8434   92.9970   16.0221 C.ar    1  UNL1        0.0000
     28 C          67.4430   93.0039   16.5595 C.ar    1  UNL1        0.0001
     29 C          66.3146   92.4845   15.7188 C.ar    1  UNL1        0.0030
@<TRIPOS>BOND
     1    16    17    3
     2    17     5    1
     3     5     6   ar
     4     6     7   ar
     5     7     8   ar
     6     8    11    1
     7    11    12   ar
     8    12    13   ar
     9    13    14   ar
    10    14    15   ar
    11     8     9   ar
    12     9     1    1
    13     1     2   am
    14     2     3    2
    15     2    18    1
    16    18    19   ar
    17    19    20   ar
    18    20    21   ar
    19    21    24    1
    20    24    25   ar
    21    25    26   ar
    22    26    27   ar
    23    27    28   ar
    24    28    29   ar
    25    21    22   ar
    26    22    23   ar
    27     9    10   ar
    28    10     5   ar
    29    15    11   ar
    30    23    18   ar
    31    29    24   ar
    32     1     4    1
@<TRIPOS>MOLECULE
*****
 29 32 0 0 0
SMALL
GASTEIGER

@<TRIPOS>ATOM
      1 N          61.8774   86.1691   11.6326 N.am    1  UNL1       -0.2791
      2 C          62.0215   86.0243   10.1466 C.2     1  UNL1        0.2526
      3 O          62.8850   84.9369    9.5793 O.2     1  UNL1       -0.2697
      4 H          61.3107   86.8828   12.0050 H       1  UNL1        0.1552
      5 C          63.0737   82.8069   13.3689 C.ar    1  UNL1        0.0698
      6 C          64.0353   83.3411   14.3886 C.ar    1  UNL1        0.0119
      7 C          64.2776   84.8180   14.4897 C.ar    1  UNL1        0.0195
      8 C          63.5583   85.7606   13.5711 C.ar    1  UNL1        0.0790
      9 C          62.5967   85.2264   12.5513 C.ar    1  UNL1        0.0676
     10 C          62.3544   83.7496   12.4502 C.ar    1  UNL1        0.0264
     11 N          63.8006   87.2375   13.6722 N.ar    1  UNL1       -0.2852
     12 C          64.4417   87.9488   14.8268 C.ar    1  UNL1        0.1023
     13 C          64.4817   89.4132   14.5046 C.ar    1  UNL1        0.1196
     14 N          63.8653   89.6070   13.1509 N.ar    1  UNL1       -0.2220
     15 C          63.4444   88.2623   12.6365 C.ar    1  UNL1        0.1829
     16 N          62.5891   79.8533   13.1667 N.1     1  UNL1       -0.1908
     17 C          62.8314   81.3301   13.2678 C.1     1  UNL1        0.1005
     18 C          61.3022   86.9670    9.2279 C.ar    1  UNL1        0.0919
     19 C          61.3335   88.4430    9.4933 C.ar    1  UNL1        0.1066
     20 N          60.6142   89.3856    8.5746 N.ar    1  UNL1       -0.2249
     21 C          59.8636   88.8522    7.3905 C.ar    1  UNL1        0.1623
     22 N          59.8322   87.3762    7.1251 N.ar    1  UNL1       -0.2249
     23 C          60.5516   86.4336    8.0438 C.ar    1  UNL1        0.1066
     24 C          59.1442   89.7949    6.4718 C.ar    1  UNL1        0.0358
     25 C          57.6475   89.7567    6.3799 C.ar    1  UNL1        0.0030
     26 C          56.9283   90.6993    5.4612 C.ar    1  UNL1        0.0001
     27 C          57.7057   91.6802    4.6344 C.ar    1  UNL1        0.0000
     28 C          59.2023   91.7183    4.7263 C.ar    1  UNL1        0.0001
     29 C          59.9216   90.7757    5.6449 C.ar    1  UNL1        0.0030
@<TRIPOS>BOND
     1    16    17    3
     2    17     5    1
     3     5     6   ar
     4     6     7   ar
     5     7     8   ar
     6     8    11    1
     7    11    12   ar
     8    12    13   ar
     9    13    14   ar
    10    14    15   ar
    11     8     9   ar
    12     9     1    1
    13     1     2   am
    14     2     3    2
    15     2    18    1
    16    18    19   ar
    17    19    20   ar
    18    20    21   ar
    19    21    24    1
    20    24    25   ar
    21    25    26   ar
    22    26    27   ar
    23    27    28   ar
    24    28    29   ar
    25    21    22   ar
    26    22    23   ar
    27     9    10   ar
    28    10     5   ar
    29    15    11   ar
    30    23    18   ar
    31    29    24   ar
    32     1     4    1
@<TRIPOS>MOLECULE
*****
 29 32 0 0 0
SMALL
GASTEIGER

@<TRIPOS>ATOM
      1 N          63.6190   85.6791   13.0779 N.am    1  UNL1       -0.2791
      2 C          62.7878   86.7612   12.4550 C.2     1  UNL1        0.2526
      3 O          61.4039   86.4552   11.9639 O.2     1  UNL1       -0.2697
      4 H          64.5273   85.8800   13.4003 H       1  UNL1        0.1552
      5 C          62.6214   81.9405   12.1960 C.ar    1  UNL1        0.0698
      6 C          61.9608   81.5145   13.4735 C.ar    1  UNL1        0.0119
      7 C          61.8530   82.4767   14.6192 C.ar    1  UNL1        0.0195
      8 C          62.4057   83.8648   14.4874 C.ar    1  UNL1        0.0790
      9 C          63.0662   84.2909   13.2098 C.ar    1  UNL1        0.0676
     10 C          63.1741   83.3287   12.0642 C.ar    1  UNL1        0.0264
     11 N          62.2978   84.8270   15.6331 N.ar    1  UNL1       -0.2852
     12 C          63.4110   85.2292   16.5545 C.ar    1  UNL1        0.1023
     13 C          62.8590   86.2067   17.5494 C.ar    1  UNL1        0.1196
     14 N          61.4046   86.4087   17.2428 N.ar    1  UNL1       -0.2220
     15 C          61.0578   85.5560   16.0585 C.ar    1  UNL1        0.1829
     16 N          62.8371   80.0162    9.9046 N.1     1  UNL1       -0.1908
     17 C          62.7292   80.9783   11.0503 C.1     1  UNL1        0.1005
     18 C          63.3406   88.1495   12.3231 C.ar    1  UNL1        0.0919
     19 C          64.1544   88.7415   13.4353 C.ar    1  UNL1        0.1066
     20 N          64.7071   90.1297   13.3034 N.ar    1  UNL1       -0.2249
     21 C          64.4460   90.9258   12.0592 C.ar    1  UNL1        0.1623
     22 N          63.6322   90.3338   10.9470 N.ar    1  UNL1       -0.2249
     23 C          63.0795   88.9456   11.0789 C.ar    1  UNL1        0.1066
     24 C          64.9987   92.3141   11.9273 C.ar    1  UNL1        0.0358
     25 C          64.8261   93.0713   10.6441 C.ar    1  UNL1        0.0030
     26 C          65.3788   94.4595   10.5122 C.ar    1  UNL1        0.0001
     27 C          66.1042   95.0904   11.6636 C.ar    1  UNL1        0.0000
     28 C          66.2768   94.3332   12.9469 C.ar    1  UNL1        0.0001
     29 C          65.7241   92.9450   13.0787 C.ar    1  UNL1        0.0030
@<TRIPOS>BOND
     1    16    17    3
     2    17     5    1
     3     5     6   ar
     4     6     7   ar
     5     7     8   ar
     6     8    11    1
     7    11    12   ar
     8    12    13   ar
     9    13    14   ar
    10    14    15   ar
    11     8     9   ar
    12     9     1    1
    13     1     2   am
    14     2     3    2
    15     2    18    1
    16    18    19   ar
    17    19    20   ar
    18    20    21   ar
    19    21    24    1
    20    24    25   ar
    21    25    26   ar
    22    26    27   ar
    23    27    28   ar
    24    28    29   ar
    25    21    22   ar
    26    22    23   ar
    27     9    10   ar
    28    10     5   ar
    29    15    11   ar
    30    23    18   ar
    31    29    24   ar
    32     1     4    1
@<TRIPOS>MOLECULE
*****
 29 32 0 0 0
SMALL
GASTEIGER

@<TRIPOS>ATOM
      1 N          65.3537   91.6393   12.0082 N.am    1  UNL1       -0.2791
      2 C          64.2876   91.1511   12.9435 C.2     1  UNL1        0.2526
      3 O          63.5027   92.1317   13.7636 O.2     1  UNL1       -0.2697
      4 H          65.8688   90.9957   11.4700 H       1  UNL1        0.1552
      5 C          65.4546   95.3365   10.5692 C.ar    1  UNL1        0.0698
      6 C          66.1977   96.0459   11.6622 C.ar    1  UNL1        0.0119
      7 C          66.6595   95.2864   12.8704 C.ar    1  UNL1        0.0195
      8 C          66.3782   93.8176   12.9858 C.ar    1  UNL1        0.0790
      9 C          65.6351   93.1083   11.8929 C.ar    1  UNL1        0.0676
     10 C          65.1733   93.8677   10.6846 C.ar    1  UNL1        0.0264
     11 N          66.8400   93.0581   14.1941 N.ar    1  UNL1       -0.2852
     12 C          66.1843   93.0645   15.5432 C.ar    1  UNL1        0.1023
     13 C          66.9776   92.1692   16.4483 C.ar    1  UNL1        0.1196
     14 N          68.1236   91.6096   15.6587 N.ar    1  UNL1       -0.2220
     15 C          68.0385   92.1590   14.2655 C.ar    1  UNL1        0.1829
     16 N          64.5311   96.8555    8.1526 N.1     1  UNL1       -0.1908
     17 C          64.9928   96.0960    9.3609 C.1     1  UNL1        0.1005
     18 C          64.0062   89.6822   13.0588 C.ar    1  UNL1        0.0919
     19 C          64.5151   88.9116   14.2409 C.ar    1  UNL1        0.1066
     20 N          64.2337   87.4428   14.3561 N.ar    1  UNL1       -0.2249
     21 C          63.4434   86.7445   13.2894 C.ar    1  UNL1        0.1623
     22 N          62.9346   87.5151   12.1074 N.ar    1  UNL1       -0.2249
     23 C          63.2159   88.9839   11.9921 C.ar    1  UNL1        0.1066
     24 C          63.1621   85.2756   13.4047 C.ar    1  UNL1        0.0358
     25 C          62.9357   84.4561   12.1690 C.ar    1  UNL1        0.0030
     26 C          62.6544   82.9873   12.2844 C.ar    1  UNL1        0.0001
     27 C          62.5994   82.3380   13.6354 C.ar    1  UNL1        0.0000
     28 C          62.8257   83.1575   14.8712 C.ar    1  UNL1        0.0001
     29 C          63.1071   84.6264   14.7558 C.ar    1  UNL1        0.0030
@<TRIPOS>BOND
     1    16    17    3
     2    17     5    1
     3     5     6   ar
     4     6     7   ar
     5     7     8   ar
     6     8    11    1
     7    11    12   ar
     8    12    13   ar
     9    13    14   ar
    10    14    15   ar
    11     8     9   ar
    12     9     1    1
    13     1     2   am
    14     2     3    2
    15     2    18    1
    16    18    19   ar
    17    19    20   ar
    18    20    21   ar
    19    21    24    1
    20    24    25   ar
    21    25    26   ar
    22    26    27   ar
    23    27    28   ar
    24    28    29   ar
    25    21    22   ar
    26    22    23   ar
    27     9    10   ar
    28    10     5   ar
    29    15    11   ar
    30    23    18   ar
    31    29    24   ar
    32     1     4    1
@<TRIPOS>MOLECULE
*****
 29 32 0 0 0
SMALL
GASTEIGER

@<TRIPOS>ATOM
      1 N          62.5002   88.2266   10.5996 N.am    1  UNL1       -0.2791
      2 C          62.7795   89.6967   10.4958 C.2     1  UNL1        0.2526
      3 O          62.0965   90.5173    9.4422 O.2     1  UNL1       -0.2697
      4 H          62.9485   87.6880   11.2911 H       1  UNL1        0.1552
      5 C          61.0748   85.9476    7.6799 C.ar    1  UNL1        0.0698
      6 C          59.6134   86.2781    7.7501 C.ar    1  UNL1        0.0119
      7 C          59.1142   87.2580    8.7702 C.ar    1  UNL1        0.0195
      8 C          60.0765   87.9075    9.7200 C.ar    1  UNL1        0.0790
      9 C          61.5379   87.5771    9.6497 C.ar    1  UNL1        0.0676
     10 C          62.0371   86.5971    8.6297 C.ar    1  UNL1        0.0264
     11 N          59.5773   88.8875   10.7401 N.ar    1  UNL1       -0.2852
     12 C          59.4198   90.3656   10.5395 C.ar    1  UNL1        0.1023
     13 C          58.8931   90.9530   11.8153 C.ar    1  UNL1        0.1196
     14 N          58.7251   89.8379   12.8043 N.ar    1  UNL1       -0.2220
     15 C          59.1479   88.5613   12.1398 C.ar    1  UNL1        0.1829
     16 N          62.0732   83.9878    5.6397 N.1     1  UNL1       -0.1908
     17 C          61.5740   84.9677    6.6598 C.1     1  UNL1        0.1005
     18 C          63.7419   90.3462   11.4457 C.ar    1  UNL1        0.0919
     19 C          63.9418   89.7749   12.8181 C.ar    1  UNL1        0.1066
     20 N          64.9041   90.4244   13.7679 N.ar    1  UNL1       -0.2249
     21 C          65.6665   91.6452   13.3452 C.ar    1  UNL1        0.1623
     22 N          65.4665   92.2164   11.9727 N.ar    1  UNL1       -0.2249
     23 C          64.5042   91.5669   11.0230 C.ar    1  UNL1        0.1066
     24 C          66.6288   92.2947   14.2950 C.ar    1  UNL1        0.0358
     25 C          66.8311   93.7805   14.2586 C.ar    1  UNL1        0.0030
     26 C          67.7934   94.4299   15.2084 C.ar    1  UNL1        0.0001
     27 C          68.5534   93.5935   16.1947 C.ar    1  UNL1        0.0000
     28 C          68.3511   92.1077   16.2311 C.ar    1  UNL1        0.0001
     29 C          67.3888   91.4583   15.2813 C.ar    1  UNL1        0.0030
@<TRIPOS>BOND
     1    16    17    3
     2    17     5    1
     3     5     6   ar
     4     6     7   ar
     5     7     8   ar
     6     8    11    1
     7    11    12   ar
     8    12    13   ar
     9    13    14   ar
    10    14    15   ar
    11     8     9   ar
    12     9     1    1
    13     1     2   am
    14     2     3    2
    15     2    18    1
    16    18    19   ar
    17    19    20   ar
    18    20    21   ar
    19    21    24    1
    20    24    25   ar
    21    25    26   ar
    22    26    27   ar
    23    27    28   ar
    24    28    29   ar
    25    21    22   ar
    26    22    23   ar
    27     9    10   ar
    28    10     5   ar
    29    15    11   ar
    30    23    18   ar
    31    29    24   ar
    32     1     4    1
