@<TRIPOS>MOLECULE
*****
 60 66 0 0 0
SMALL
GASTEIGER

@<TRIPOS>ATOM
      1 N          63.8747   96.5777   -5.0373 N.3     1  UNL1       -0.1862
      2 C          63.0922   96.5424   -6.3165 C.3     1  UNL1        0.1775
      3 C          61.5982   96.4142   -6.2785 C.2     1  UNL1        0.2452
      4 O          60.8157   96.3789   -7.5579 O.2     1  UNL1       -0.2732
      5 N          60.8866   96.3214   -4.9614 N.am    1  UNL1       -0.2541
      6 C          61.6691   96.3568   -3.6821 C.3     1  UNL1        0.1908
      7 C          60.9576   96.2640   -2.3649 C.3     1  UNL1        0.1359
      8 N          59.4635   96.1358   -2.3269 N.am    1  UNL1       -0.2705
      9 C          58.6810   96.1005   -3.6062 C.2     1  UNL1        0.2445
     10 O          57.1870   95.9724   -3.5682 O.2     1  UNL1       -0.2731
     11 C          59.3926   96.1933   -4.9234 C.3     1  UNL1        0.1577
     12 N          63.1632   96.4849   -3.7201 N.am    1  UNL1       -0.1863
     13 C          63.9456   96.5202   -2.4408 C.2     1  UNL1        0.3191
     14 O          63.2341   96.4274   -1.1236 O.2     1  UNL1       -0.2512
     15 N          65.4397   96.6483   -2.4788 N.am    1  UNL1       -0.2836
     16 H          65.9067   96.7092   -3.3433 H       1  UNL1        0.1513
     17 C          65.3687   96.7058   -5.0753 C.3     1  UNL1        0.1188
     18 C          66.6011   96.2431   -7.3152 C.2     1  UNL1       -0.0034
     19 C          66.1778   95.7931   -5.9483 C.2     1  UNL1       -0.0071
     20 C          58.7520   96.0430   -1.0097 C.3     1  UNL1        0.1217
     21 C          58.6414   94.7216   -0.3084 C.ar    1  UNL1        0.0135
     22 C          57.8109   93.6237   -0.9041 C.ar    1  UNL1       -0.0012
     23 C          57.7003   92.3023   -0.2029 C.ar    1  UNL1       -0.0002
     24 C          58.4201   92.0789    1.0940 C.ar    1  UNL1        0.0016
     25 C          59.2506   93.1769    1.6896 C.ar    1  UNL1        0.0214
     26 C          60.0676   93.2488    2.9455 C.ar    1  UNL1        0.0722
     27 C          60.6832   94.6146    3.0205 C.ar    1  UNL1        0.0805
     28 N          60.2466   95.3867    1.8110 N.ar    1  UNL1       -0.3241
     29 C          60.6284   96.7995    1.4817 C.3     1  UNL1        0.1305
     30 C          59.3612   94.4982    0.9884 C.ar    1  UNL1        0.0577
     31 C          60.2390   92.1480    3.9501 C.2     1  UNL1        0.2510
     32 O          61.5176   91.3648    3.9937 O.2     1  UNL1       -0.2698
     33 N          59.1318   91.8305    4.9110 N.am    1  UNL1       -0.2803
     34 H          58.2927   92.3446    4.8824 H       1  UNL1        0.1552
     35 C          59.3031   90.7299    5.9156 C.ar    1  UNL1        0.0505
     36 C          60.2248   90.9177    7.0840 C.ar    1  UNL1        0.0144
     37 C          60.3962   89.8171    8.0886 C.ar    1  UNL1       -0.0029
     38 C          59.6459   88.5287    7.9248 C.ar    1  UNL1       -0.0196
     39 C          58.7242   88.3408    6.7564 C.ar    1  UNL1       -0.0029
     40 C          58.5528   89.4414    5.7518 C.ar    1  UNL1        0.0144
     41 C          59.8172   87.4280    8.9294 C.3     1  UNL1        0.0581
     42 C          61.1700   87.1511    9.5152 C.3     1  UNL1        0.1418
     43 O          62.1958   86.4053    8.7144 O.3     1  UNL1       -0.3816
     44 H          61.8930   85.4954    8.5683 H       1  UNL1        0.2105
     45 C          58.6101   96.1580   -6.2026 C.3     1  UNL1        0.0556
     46 C          57.7054   94.9982   -6.4966 C.ar    1  UNL1       -0.0198
     47 C          58.1684   93.5978   -6.2238 C.ar    1  UNL1       -0.0011
     48 C          57.2637   92.4381   -6.5178 C.ar    1  UNL1        0.0363
     49 C          55.8960   92.6787   -7.0846 C.ar    1  UNL1        0.1337
     50 O          54.9913   91.5189   -7.3786 O.3     1  UNL1       -0.5055
     51 C          55.4329   94.0791   -7.3574 C.ar    1  UNL1        0.0363
     52 C          56.3376   95.2389   -7.0634 C.ar    1  UNL1       -0.0011
     53 H          55.2805   90.6441   -7.2082 H       1  UNL1        0.2922
     54 C          66.2222   96.6837   -1.1996 C.3     1  UNL1        0.1177
     55 C          65.6714   96.0331    0.0347 C.ar    1  UNL1       -0.0025
     56 C          65.3893   94.5599    0.0438 C.ar    1  UNL1       -0.0026
     57 C          64.8386   93.9093    1.2781 C.ar    1  UNL1       -0.0003
     58 C          64.5700   94.7319    2.5033 C.ar    1  UNL1       -0.0000
     59 C          64.8522   96.2052    2.4942 C.ar    1  UNL1       -0.0003
     60 C          65.4029   96.8557    1.2599 C.ar    1  UNL1       -0.0026
@<TRIPOS>BOND
     1    18    19    2
     2    19    17    1
     3    17     1    1
     4     1     2    1
     5     2     3    1
     6     3     4    2
     7     3     5   am
     8     5     6    1
     9     6     7    1
    10     7     8    1
    11     8    20    1
    12    20    21    1
    13    21    22   ar
    14    22    23   ar
    15    23    24   ar
    16    24    25   ar
    17    25    26   ar
    18    26    31    1
    19    31    32    2
    20    31    33   am
    21    33    35    1
    22    35    36   ar
    23    36    37   ar
    24    37    38   ar
    25    38    41    1
    26    41    42    1
    27    42    43    1
    28    38    39   ar
    29    39    40   ar
    30    26    27   ar
    31    27    28   ar
    32    28    29    1
    33    28    30   ar
    34     8     9   am
    35     9    10    2
    36     9    11    1
    37    11    45    1
    38    45    46    1
    39    46    47   ar
    40    47    48   ar
    41    48    49   ar
    42    49    50    1
    43    49    51   ar
    44    51    52   ar
    45     6    12    1
    46    12    13   am
    47    13    14    2
    48    13    15   am
    49    15    54    1
    50    54    55    1
    51    55    56   ar
    52    56    57   ar
    53    57    58   ar
    54    58    59   ar
    55    59    60   ar
    56    12     1    1
    57    60    55   ar
    58    11     5    1
    59    52    46   ar
    60    30    21   ar
    61    30    25   ar
    62    40    35   ar
    63    33    34    1
    64    43    44    1
    65    50    53    1
    66    15    16    1
