@<TRIPOS>MOLECULE
*****
 38 42 0 0 0
SMALL
GASTEIGER

@<TRIPOS>ATOM
      1 N          63.5334   90.6455   12.1417 N.am    1  UNL1       -0.2438
      2 C          64.2259   90.5267   13.4669 C.3     1  UNL1        0.1009
      3 C          65.4568   91.3374   13.7453 C.3     1  UNL1        0.0662
      4 C          65.9953   92.2670   12.6985 C.3     1  UNL1        0.1621
      5 O          65.3029   92.3858   11.3732 O.3     1  UNL1       -0.4374
      6 C          64.0719   91.5751   11.0948 C.2     1  UNL1        0.4051
      7 O          63.3795   91.6939    9.7695 O.2     1  UNL1       -0.2262
      8 C          66.9955   92.4989   13.7921 C.ar    1  UNL1        0.0413
      9 C          66.5988   93.2606   15.0220 C.ar    1  UNL1        0.0013
     10 C          67.5989   93.4925   16.1156 C.ar    1  UNL1       -0.0001
     11 C          68.9956   92.9629   15.9793 C.ar    1  UNL1        0.0023
     12 C          69.3923   92.2013   14.7495 C.ar    1  UNL1        0.0294
     13 C          68.3922   91.9693   13.6558 C.ar    1  UNL1        0.1393
     14 F          68.7888   91.2077   12.4260 F       1  UNL1       -0.2044
     15 C          60.9651   90.5083   11.7743 C.3     1  UNL1        0.0265
     16 C          62.3025   89.8348   11.8633 C.3     1  UNL1        0.1011
     17 C          62.4089   88.3506   11.6739 C.ar    1  UNL1       -0.0042
     18 C          61.8073   87.7042   10.4614 C.ar    1  UNL1       -0.0027
     19 C          61.9137   86.2200   10.2721 C.ar    1  UNL1       -0.0003
     20 C          62.6218   85.3823   11.2952 C.ar    1  UNL1        0.0002
     21 C          63.2235   86.0287   12.5077 C.ar    1  UNL1       -0.0003
     22 C          63.1170   87.5128   12.6970 C.ar    1  UNL1       -0.0027
     23 C          62.7283   83.8980   11.1058 C.ar    1  UNL1        0.0062
     24 C          63.2750   83.3428    9.8241 C.ar    1  UNL1        0.0189
     25 C          63.3815   81.8586    9.6347 C.ar    1  UNL1        0.0782
     26 N          62.9411   80.9296   10.7270 N.ar    1  UNL1       -0.2960
     27 C          62.3943   81.4849   12.0088 C.ar    1  UNL1        0.2609
     28 O          61.9540   80.5560   13.1011 O.2     1  UNL1       -0.2670
     29 C          62.2879   82.9691   12.1981 C.ar    1  UNL1        0.0608
     30 C          63.0475   79.4455   10.5377 C.3     1  UNL1        0.0886
     31 C          62.7500   78.0516   11.0052 C.3     1  UNL1        0.0246
     32 C          63.5294   78.2687    9.7422 C.3     1  UNL1        0.0246
     33 C          66.8812   93.2771   12.0314 C.3     1  UNL1        0.0715
     34 C          66.5673   93.7490   10.6427 C.3     1  UNL1        0.0922
     35 C          65.7868   94.8978   11.2094 C.3     1  UNL1        0.0294
     36 C          67.3477   92.6003   10.0759 C.3     1  UNL1        0.0294
     37 O          66.2533   94.2210    9.2539 O.3     1  UNL1       -0.3866
     38 H          65.7098   95.0231    9.3002 H       1  UNL1        0.2102
@<TRIPOS>BOND
     1    16    15    1
     2    16    17    1
     3    17    18   ar
     4    18    19   ar
     5    19    20   ar
     6    20    23    1
     7    23    24   ar
     8    24    25   ar
     9    25    26   ar
    10    26    30    1
    11    30    31    1
    12    31    32    1
    13    26    27   ar
    14    27    28    2
    15    27    29   ar
    16    20    21   ar
    17    21    22   ar
    18    16     1    1
    19     1     2    1
    20     2     3    1
    21     3     4    1
    22     4    33    1
    23    33    34    1
    24    34    35    1
    25    34    36    1
    26    34    37    1
    27     4     8    1
    28     8     9   ar
    29     9    10   ar
    30    10    11   ar
    31    11    12   ar
    32    12    13   ar
    33    13    14    1
    34     4     5    1
    35     5     6    1
    36     6     7    2
    37    22    17   ar
    38     6     1   am
    39    29    23   ar
    40    13     8   ar
    41    32    30    1
    42    37    38    1
@<TRIPOS>MOLECULE
*****
 38 42 0 0 0
SMALL
GASTEIGER

@<TRIPOS>ATOM
      1 N          63.2557   90.8044   11.9861 N.am    1  UNL1       -0.2438
      2 C          63.7546   91.3125   10.6659 C.3     1  UNL1        0.1009
      3 C          64.9585   92.2057   10.6125 C.3     1  UNL1        0.0662
      4 C          65.6634   92.5909   11.8793 C.3     1  UNL1        0.1621
      5 O          65.1645   92.0828   13.1995 O.3     1  UNL1       -0.4374
      6 C          63.9606   91.1896   13.2529 C.2     1  UNL1        0.4051
      7 O          63.4617   90.6815   14.5731 O.2     1  UNL1       -0.2262
      8 C          66.5092   93.3208   10.8782 C.ar    1  UNL1        0.0413
      9 C          67.4867   92.5641   10.0286 C.ar    1  UNL1        0.0013
     10 C          68.3324   93.2940    9.0276 C.ar    1  UNL1       -0.0001
     11 C          68.2007   94.7805    8.8763 C.ar    1  UNL1        0.0023
     12 C          67.2232   95.5372    9.7260 C.ar    1  UNL1        0.0294
     13 C          66.3774   94.8073   10.7270 C.ar    1  UNL1        0.1393
     14 F          65.4000   95.5639   11.5767 F       1  UNL1       -0.2044
     15 C          60.6983   90.4928   12.3213 C.3     1  UNL1        0.0265
     16 C          62.0518   89.9112   12.0395 C.3     1  UNL1        0.1011
     17 C          62.2016   88.4362   11.8111 C.ar    1  UNL1       -0.0042
     18 C          61.4283   87.7646   10.7153 C.ar    1  UNL1       -0.0027
     19 C          61.5781   86.2897   10.4870 C.ar    1  UNL1       -0.0003
     20 C          62.5012   85.4864   11.3544 C.ar    1  UNL1        0.0002
     21 C          63.2745   86.1580   12.4503 C.ar    1  UNL1       -0.0003
     22 C          63.1247   87.6329   12.6786 C.ar    1  UNL1       -0.0027
     23 C          62.6510   84.0114   11.1261 C.ar    1  UNL1        0.0062
     24 C          63.2024   83.5060    9.8259 C.ar    1  UNL1        0.0189
     25 C          63.3522   82.0310    9.5975 C.ar    1  UNL1        0.0782
     26 N          62.9505   81.0615   10.6693 N.ar    1  UNL1       -0.2960
     27 C          62.3990   81.5670   11.9695 C.ar    1  UNL1        0.2609
     28 O          61.9973   80.5976   13.0413 O.2     1  UNL1       -0.2670
     29 C          62.2493   83.0419   12.1979 C.ar    1  UNL1        0.0608
     30 C          63.1003   79.5866   10.4410 C.3     1  UNL1        0.0886
     31 C          63.6236   78.4458    9.6197 C.3     1  UNL1        0.0246
     32 C          62.8362   78.1728   10.8668 C.3     1  UNL1        0.0246
     33 C          66.6621   93.2295   12.7984 C.3     1  UNL1        0.0715
     34 C          67.2547   92.4395   13.9274 C.3     1  UNL1        0.0922
     35 C          66.4779   93.2631   14.9115 C.3     1  UNL1        0.0294
     36 C          68.0315   91.6160   12.9434 C.3     1  UNL1        0.0294
     37 O          67.8473   91.6496   15.0564 O.3     1  UNL1       -0.3866
     38 H          67.5015   91.9814   15.8997 H       1  UNL1        0.2102
@<TRIPOS>BOND
     1    16    15    1
     2    16    17    1
     3    17    18   ar
     4    18    19   ar
     5    19    20   ar
     6    20    23    1
     7    23    24   ar
     8    24    25   ar
     9    25    26   ar
    10    26    30    1
    11    30    31    1
    12    31    32    1
    13    26    27   ar
    14    27    28    2
    15    27    29   ar
    16    20    21   ar
    17    21    22   ar
    18    16     1    1
    19     1     2    1
    20     2     3    1
    21     3     4    1
    22     4    33    1
    23    33    34    1
    24    34    35    1
    25    34    36    1
    26    34    37    1
    27     4     8    1
    28     8     9   ar
    29     9    10   ar
    30    10    11   ar
    31    11    12   ar
    32    12    13   ar
    33    13    14    1
    34     4     5    1
    35     5     6    1
    36     6     7    2
    37    22    17   ar
    38     6     1   am
    39    29    23   ar
    40    13     8   ar
    41    32    30    1
    42    37    38    1
@<TRIPOS>MOLECULE
*****
 38 42 0 0 0
SMALL
GASTEIGER

@<TRIPOS>ATOM
      1 N          63.3509   90.9690   11.8613 N.am    1  UNL1       -0.2438
      2 C          63.7139   91.6406   10.5701 C.3     1  UNL1        0.1009
      3 C          64.9166   92.5343   10.5017 C.3     1  UNL1        0.0662
      4 C          65.7564   92.7565   11.7245 C.3     1  UNL1        0.1621
      5 O          65.3935   92.0849   13.0158 O.3     1  UNL1       -0.4374
      6 C          64.1907   91.1912   13.0842 C.2     1  UNL1        0.4051
      7 O          63.8278   90.5197   14.3754 O.2     1  UNL1       -0.2262
      8 C          66.5008   93.6079   10.7391 C.ar    1  UNL1        0.0413
      9 C          66.2449   95.0847   10.6802 C.ar    1  UNL1        0.0013
     10 C          66.9893   95.9361    9.6947 C.ar    1  UNL1       -0.0001
     11 C          67.9896   95.3106    8.7683 C.ar    1  UNL1        0.0023
     12 C          68.2455   93.8338    8.8272 C.ar    1  UNL1        0.0294
     13 C          67.5011   92.9824    9.8127 C.ar    1  UNL1        0.1393
     14 F          67.7569   91.5056    9.8717 F       1  UNL1       -0.2044
     15 C          60.7973   90.6571   12.2240 C.3     1  UNL1        0.0265
     16 C          62.1482   90.0753   11.9297 C.3     1  UNL1        0.1011
     17 C          62.2964   88.5998   11.7038 C.ar    1  UNL1       -0.0042
     18 C          63.1266   87.7768   12.6436 C.ar    1  UNL1       -0.0027
     19 C          63.2748   86.3014   12.4177 C.ar    1  UNL1       -0.0003
     20 C          62.5927   85.6489   11.2520 C.ar    1  UNL1        0.0002
     21 C          61.7624   86.4719   10.3121 C.ar    1  UNL1       -0.0003
     22 C          61.6143   87.9473   10.5380 C.ar    1  UNL1       -0.0027
     23 C          62.7409   84.1734   11.0261 C.ar    1  UNL1        0.0062
     24 C          63.3497   83.6671    9.7521 C.ar    1  UNL1        0.0189
     25 C          63.4979   82.1916    9.5263 C.ar    1  UNL1        0.0782
     26 N          63.0372   81.2224   10.5743 N.ar    1  UNL1       -0.2960
     27 C          62.4283   81.7288   11.8483 C.ar    1  UNL1        0.2609
     28 O          61.9676   80.7596   12.8964 O.2     1  UNL1       -0.2670
     29 C          62.2802   83.2042   12.0741 C.ar    1  UNL1        0.0608
     30 C          63.1854   79.7470   10.3485 C.3     1  UNL1        0.0886
     31 C          63.6007   78.6021    9.4729 C.3     1  UNL1        0.0246
     32 C          63.0267   78.3363   10.8330 C.3     1  UNL1        0.0246
     33 C          66.8548   93.2743   12.6051 C.3     1  UNL1        0.0715
     34 C          67.2507   92.5140   13.8360 C.3     1  UNL1        0.0922
     35 C          66.4524   93.4634   14.6794 C.3     1  UNL1        0.0294
     36 C          68.0491   91.5646   12.9926 C.3     1  UNL1        0.0294
     37 O          67.6467   91.7536   15.0668 O.3     1  UNL1       -0.3866
     38 H          67.2452   92.1686   15.8463 H       1  UNL1        0.2102
@<TRIPOS>BOND
     1    16    15    1
     2    16    17    1
     3    17    18   ar
     4    18    19   ar
     5    19    20   ar
     6    20    23    1
     7    23    24   ar
     8    24    25   ar
     9    25    26   ar
    10    26    30    1
    11    30    31    1
    12    31    32    1
    13    26    27   ar
    14    27    28    2
    15    27    29   ar
    16    20    21   ar
    17    21    22   ar
    18    16     1    1
    19     1     2    1
    20     2     3    1
    21     3     4    1
    22     4    33    1
    23    33    34    1
    24    34    35    1
    25    34    36    1
    26    34    37    1
    27     4     8    1
    28     8     9   ar
    29     9    10   ar
    30    10    11   ar
    31    11    12   ar
    32    12    13   ar
    33    13    14    1
    34     4     5    1
    35     5     6    1
    36     6     7    2
    37    22    17   ar
    38     6     1   am
    39    29    23   ar
    40    13     8   ar
    41    32    30    1
    42    37    38    1
@<TRIPOS>MOLECULE
*****
 38 42 0 0 0
SMALL
GASTEIGER

@<TRIPOS>ATOM
      1 N          64.3391   90.5740   13.4127 N.am    1  UNL1       -0.2438
      2 C          64.1419   91.2047   12.0662 C.3     1  UNL1        0.1009
      3 C          65.1599   92.1689   11.5333 C.3     1  UNL1        0.0662
      4 C          66.3751   92.5024   12.3469 C.3     1  UNL1        0.1621
      5 O          66.5724   91.8717   13.6935 O.3     1  UNL1       -0.4374
      6 C          65.5544   90.9075   14.2264 C.2     1  UNL1        0.4051
      7 O          65.7516   90.2767   15.5730 O.2     1  UNL1       -0.2262
      8 C          66.6308   93.3514   11.1369 C.ar    1  UNL1        0.0413
      9 C          66.0692   94.7403   11.0631 C.ar    1  UNL1        0.0013
     10 C          66.3249   95.5893    9.8531 C.ar    1  UNL1       -0.0001
     11 C          67.1421   95.0492    8.7171 C.ar    1  UNL1        0.0023
     12 C          67.7036   93.6603    8.7910 C.ar    1  UNL1        0.0294
     13 C          67.4480   92.8113   10.0009 C.ar    1  UNL1        0.1393
     14 F          68.0095   91.4224   10.0748 F       1  UNL1       -0.2044
     15 C          62.3403   90.0554   14.9893 C.3     1  UNL1        0.0265
     16 C          63.3211   89.6098   13.9456 C.3     1  UNL1        0.1011
     17 C          63.2840   88.1999   13.4348 C.ar    1  UNL1       -0.0042
     18 C          62.6106   87.8924   12.1302 C.ar    1  UNL1       -0.0027
     19 C          62.5735   86.4826   11.6194 C.ar    1  UNL1       -0.0003
     20 C          63.2097   85.3802   12.4132 C.ar    1  UNL1        0.0002
     21 C          63.8831   85.6878   13.7177 C.ar    1  UNL1       -0.0003
     22 C          63.9202   87.0976   14.2285 C.ar    1  UNL1       -0.0027
     23 C          63.1726   83.9704   11.9023 C.ar    1  UNL1        0.0062
     24 C          63.6659   83.6602   10.5201 C.ar    1  UNL1        0.0189
     25 C          63.6287   82.2503   10.0093 C.ar    1  UNL1        0.0782
     26 N          63.0982   81.1506   10.8807 N.ar    1  UNL1       -0.2960
     27 C          62.6049   81.4608   12.2629 C.ar    1  UNL1        0.2609
     28 O          62.0745   80.3611   13.1343 O.2     1  UNL1       -0.2670
     29 C          62.6421   82.8707   12.7737 C.ar    1  UNL1        0.0608
     30 C          63.0611   79.7408   10.3699 C.3     1  UNL1        0.0886
     31 C          63.3504   78.7431    9.2878 C.3     1  UNL1        0.0246
     32 C          62.7073   78.2965   10.5672 C.3     1  UNL1        0.0246
     33 C          67.6791   93.1307   12.7404 C.3     1  UNL1        0.0715
     34 C          68.4308   92.6153   13.9317 C.3     1  UNL1        0.0922
     35 C          67.7735   93.6513   14.7947 C.3     1  UNL1        0.0294
     36 C          69.0880   91.5793   13.0688 C.3     1  UNL1        0.0294
     37 O          69.1823   92.0999   15.1231 O.3     1  UNL1       -0.3866
     38 H          68.9436   92.6205   15.9060 H       1  UNL1        0.2102
@<TRIPOS>BOND
     1    16    15    1
     2    16    17    1
     3    17    18   ar
     4    18    19   ar
     5    19    20   ar
     6    20    23    1
     7    23    24   ar
     8    24    25   ar
     9    25    26   ar
    10    26    30    1
    11    30    31    1
    12    31    32    1
    13    26    27   ar
    14    27    28    2
    15    27    29   ar
    16    20    21   ar
    17    21    22   ar
    18    16     1    1
    19     1     2    1
    20     2     3    1
    21     3     4    1
    22     4    33    1
    23    33    34    1
    24    34    35    1
    25    34    36    1
    26    34    37    1
    27     4     8    1
    28     8     9   ar
    29     9    10   ar
    30    10    11   ar
    31    11    12   ar
    32    12    13   ar
    33    13    14    1
    34     4     5    1
    35     5     6    1
    36     6     7    2
    37    22    17   ar
    38     6     1   am
    39    29    23   ar
    40    13     8   ar
    41    32    30    1
    42    37    38    1
@<TRIPOS>MOLECULE
*****
 38 42 0 0 0
SMALL
GASTEIGER

@<TRIPOS>ATOM
      1 N          72.4528   75.5307   14.5196 N.am    1  UNL1       -0.2438
      2 C          73.0869   74.6598   15.5634 C.3     1  UNL1        0.1009
      3 C          72.7330   73.2042   15.6417 C.3     1  UNL1        0.0662
      4 C          71.7452   72.6195   14.6763 C.3     1  UNL1        0.1621
      5 O          71.1110   73.4904   13.6324 O.3     1  UNL1       -0.4374
      6 C          71.4649   74.9459   13.5541 C.2     1  UNL1        0.4051
      7 O          70.8308   75.8168   12.5103 O.2     1  UNL1       -0.2262
      8 C          72.0761   71.3983   15.4820 C.ar    1  UNL1        0.0413
      9 C          73.2416   70.5372   15.0944 C.ar    1  UNL1        0.0013
     10 C          73.5725   69.3160   15.9001 C.ar    1  UNL1       -0.0001
     11 C          72.7379   68.9559   17.0933 C.ar    1  UNL1        0.0023
     12 C          71.5724   69.8169   17.4809 C.ar    1  UNL1        0.0294
     13 C          71.2415   71.0381   16.6752 C.ar    1  UNL1        0.1393
     14 F          70.0760   71.8992   17.0627 F       1  UNL1       -0.2044
     15 C          73.1372   77.7460   15.6916 C.3     1  UNL1        0.0265
     16 C          72.8066   76.9862   14.4413 C.3     1  UNL1        0.1011
     17 C          72.8298   77.6820   13.1126 C.ar    1  UNL1       -0.0042
     18 C          72.0740   78.9638   12.9238 C.ar    1  UNL1       -0.0027
     19 C          72.0972   79.6594   11.5951 C.ar    1  UNL1       -0.0003
     20 C          72.8763   79.0733   10.4552 C.ar    1  UNL1        0.0002
     21 C          73.6322   77.7915   10.6439 C.ar    1  UNL1       -0.0003
     22 C          73.6089   77.0959   11.9726 C.ar    1  UNL1       -0.0027
     23 C          72.8995   79.7691    9.1265 C.ar    1  UNL1        0.0062
     24 C          73.3774   79.0395    7.9061 C.ar    1  UNL1        0.0189
     25 C          73.4006   79.7353    6.5774 C.ar    1  UNL1        0.0782
     26 N          72.9459   81.1606    6.4691 N.ar    1  UNL1       -0.2960
     27 C          72.4680   81.8901    7.6895 C.ar    1  UNL1        0.2609
     28 O          72.0133   83.3155    7.5812 O.2     1  UNL1       -0.2670
     29 C          72.4448   81.1944    9.0182 C.ar    1  UNL1        0.0608
     30 C          72.9691   81.8563    5.1404 C.3     1  UNL1        0.0886
     31 C          72.6885   83.0696    4.3044 C.3     1  UNL1        0.0246
     32 C          73.2900   81.8481    3.6752 C.3     1  UNL1        0.0246
     33 C          70.8722   71.6106   13.9906 C.3     1  UNL1        0.0715
     34 C          70.8621   71.5219   12.4933 C.3     1  UNL1        0.0922
     35 C          69.3794   71.2958   12.5167 C.3     1  UNL1        0.0294
     36 C          72.3447   71.7480   12.4699 C.3     1  UNL1        0.0294
     37 O          70.8519   71.4331   10.9960 O.3     1  UNL1       -0.3866
     38 H          69.9457   71.2761   10.6875 H       1  UNL1        0.2102
@<TRIPOS>BOND
     1    16    15    1
     2    16    17    1
     3    17    18   ar
     4    18    19   ar
     5    19    20   ar
     6    20    23    1
     7    23    24   ar
     8    24    25   ar
     9    25    26   ar
    10    26    30    1
    11    30    31    1
    12    31    32    1
    13    26    27   ar
    14    27    28    2
    15    27    29   ar
    16    20    21   ar
    17    21    22   ar
    18    16     1    1
    19     1     2    1
    20     2     3    1
    21     3     4    1
    22     4    33    1
    23    33    34    1
    24    34    35    1
    25    34    36    1
    26    34    37    1
    27     4     8    1
    28     8     9   ar
    29     9    10   ar
    30    10    11   ar
    31    11    12   ar
    32    12    13   ar
    33    13    14    1
    34     4     5    1
    35     5     6    1
    36     6     7    2
    37    22    17   ar
    38     6     1   am
    39    29    23   ar
    40    13     8   ar
    41    32    30    1
    42    37    38    1
@<TRIPOS>MOLECULE
*****
 38 42 0 0 0
SMALL
GASTEIGER

@<TRIPOS>ATOM
      1 N          58.8916   95.6044   -2.5456 N.am    1  UNL1       -0.2438
      2 C          57.6066   96.3779   -2.5258 C.3     1  UNL1        0.1009
      3 C          56.6045   96.1959   -3.6271 C.3     1  UNL1        0.0662
      4 C          56.8875   95.2405   -4.7482 C.3     1  UNL1        0.1621
      5 O          58.1726   94.4669   -4.7681 O.3     1  UNL1       -0.4374
      6 C          59.1746   94.6489   -3.6668 C.2     1  UNL1        0.4051
      7 O          60.4596   93.8754   -3.6866 O.2     1  UNL1       -0.2262
      8 C          55.5380   95.7427   -5.1684 C.ar    1  UNL1        0.0413
      9 C          55.3544   96.3530   -6.5263 C.ar    1  UNL1        0.0013
     10 C          54.0048   96.8553   -6.9465 C.ar    1  UNL1       -0.0001
     11 C          52.8390   96.7472   -6.0089 C.ar    1  UNL1        0.0023
     12 C          53.0227   96.1369   -4.6510 C.ar    1  UNL1        0.0294
     13 C          54.3722   95.6347   -4.2308 C.ar    1  UNL1        0.1393
     14 F          54.5559   95.0244   -2.8730 F       1  UNL1       -0.2044
     15 C          60.9398   96.8560   -1.5514 C.3     1  UNL1        0.0265
     16 C          59.8936   95.7864   -1.4443 C.3     1  UNL1        0.1011
     17 C          59.8493   94.8988   -0.2359 C.ar    1  UNL1       -0.0042
     18 C          60.6358   95.2601    0.9892 C.ar    1  UNL1       -0.0027
     19 C          60.5915   94.3725    2.1976 C.ar    1  UNL1       -0.0003
     20 C          59.7608   93.1237    2.1808 C.ar    1  UNL1        0.0002
     21 C          58.9744   92.7624    0.9557 C.ar    1  UNL1       -0.0003
     22 C          59.0187   93.6499   -0.2527 C.ar    1  UNL1       -0.0027
     23 C          59.7166   92.2360    3.3893 C.ar    1  UNL1        0.0062
     24 C          60.9894   91.6929    3.9679 C.ar    1  UNL1        0.0189
     25 C          60.9452   90.8053    5.1764 C.ar    1  UNL1        0.0782
     26 N          59.6281   90.4609    5.8061 N.ar    1  UNL1       -0.2960
     27 C          58.3552   91.0040    5.2274 C.ar    1  UNL1        0.2609
     28 O          57.0381   90.6596    5.8572 O.2     1  UNL1       -0.2670
     29 C          58.3995   91.8916    4.0190 C.ar    1  UNL1        0.0608
     30 C          59.5838   89.5733    7.0145 C.3     1  UNL1        0.0886
     31 C          60.0331   89.2552    8.4098 C.3     1  UNL1        0.0246
     32 C          59.0578   88.3541    7.7122 C.3     1  UNL1        0.0246
     33 C          56.7018   94.4594   -6.0153 C.3     1  UNL1        0.0715
     34 C          57.0422   92.9990   -6.0528 C.3     1  UNL1        0.0922
     35 C          56.0672   92.7432   -4.9419 C.3     1  UNL1        0.0294
     36 C          58.0171   93.2548   -7.1637 C.3     1  UNL1        0.0294
     37 O          57.3825   91.5386   -6.0903 O.3     1  UNL1       -0.3866
     38 H          56.8615   91.0679   -5.4211 H       1  UNL1        0.2102
@<TRIPOS>BOND
     1    16    15    1
     2    16    17    1
     3    17    18   ar
     4    18    19   ar
     5    19    20   ar
     6    20    23    1
     7    23    24   ar
     8    24    25   ar
     9    25    26   ar
    10    26    30    1
    11    30    31    1
    12    31    32    1
    13    26    27   ar
    14    27    28    2
    15    27    29   ar
    16    20    21   ar
    17    21    22   ar
    18    16     1    1
    19     1     2    1
    20     2     3    1
    21     3     4    1
    22     4    33    1
    23    33    34    1
    24    34    35    1
    25    34    36    1
    26    34    37    1
    27     4     8    1
    28     8     9   ar
    29     9    10   ar
    30    10    11   ar
    31    11    12   ar
    32    12    13   ar
    33    13    14    1
    34     4     5    1
    35     5     6    1
    36     6     7    2
    37    22    17   ar
    38     6     1   am
    39    29    23   ar
    40    13     8   ar
    41    32    30    1
    42    37    38    1
