@<TRIPOS>MOLECULE
*****
 29 32 0 0 0
SMALL
GASTEIGER

@<TRIPOS>ATOM
      1 N          62.7821   88.6170   10.9475 N.am    1  UNL1       -0.2778
      2 C          62.3043   89.4357   12.1101 C.2     1  UNL1        0.2541
      3 O          60.8344   89.5860   12.3679 O.2     1  UNL1       -0.2696
      4 H          63.7469   88.5183   10.7784 H       1  UNL1        0.1553
      5 C          63.2967   90.1041   13.0148 C.ar    1  UNL1        0.1103
      6 C          63.5140   89.7953   14.4664 C.ar    1  UNL1        0.1281
      7 N          64.5976   90.6991   14.9754 N.ar    1  UNL1       -0.1619
      8 N          65.0500   91.5664   13.8384 N.ar    1  UNL1       -0.2104
      9 C          66.0902   92.6435   13.7498 C.ar    1  UNL1        0.1049
     10 C          66.3264   93.3530   12.4494 C.ar    1  UNL1        0.0546
     11 C          65.5224   92.9853   11.2376 C.ar    1  UNL1        0.1286
     12 N          65.7586   93.6947    9.9372 N.pl3   1  UNL1       -0.3425
     13 N          64.4822   91.9081   11.3262 N.ar    1  UNL1       -0.2121
     14 C          64.2460   91.1987   12.6265 C.ar    1  UNL1        0.1710
     15 H          66.4413   94.4017    9.8791 H       1  UNL1        0.1437
     16 H          65.2309   93.4534    9.1419 H       1  UNL1        0.1437
     17 C          58.8707   87.8382    7.4870 C.3     1  UNL1        0.1538
     18 N          59.9920   87.5906    8.4521 N.ar    1  UNL1       -0.2461
     19 C          60.7683   88.6408    9.1900 C.ar    1  UNL1        0.1113
     20 C          61.7898   87.9485   10.0428 C.ar    1  UNL1        0.0891
     21 C          61.6449   86.4705    9.8320 C.ar    1  UNL1        0.1158
     22 N          60.5337   86.2493    8.8489 N.ar    1  UNL1       -0.1679
     23 C          62.4668   85.4014   10.4889 C.ar    1  UNL1        0.0215
     24 C          63.2949   84.4717    9.6522 C.ar    1  UNL1        0.0016
     25 C          64.1168   83.4026   10.3092 C.ar    1  UNL1        0.0009
     26 C          64.1105   83.2632   11.8027 C.ar    1  UNL1        0.0114
     27 C          63.2824   84.1929   12.6393 C.ar    1  UNL1        0.0577
     28 CL         63.2761   84.0534   14.1328 Cl      1  UNL1       -0.0822
     29 C          62.4605   85.2620   11.9823 C.ar    1  UNL1        0.0130
@<TRIPOS>BOND
     1    17    18    1
     2    18    19   ar
     3    19    20   ar
     4    20     1    1
     5     1     2   am
     6     2     3    2
     7     2     5    1
     8     5     6   ar
     9     6     7   ar
    10     7     8   ar
    11     8     9   ar
    12     9    10   ar
    13    10    11   ar
    14    11    12    1
    15    11    13   ar
    16    13    14   ar
    17    20    21   ar
    18    21    23    1
    19    23    24   ar
    20    24    25   ar
    21    25    26   ar
    22    26    27   ar
    23    27    28    1
    24    27    29   ar
    25    21    22   ar
    26    22    18   ar
    27    14     5   ar
    28    29    23   ar
    29    14     8   ar
    30     1     4    1
    31    12    15    1
    32    12    16    1
@<TRIPOS>MOLECULE
*****
 29 32 0 0 0
SMALL
GASTEIGER

@<TRIPOS>ATOM
      1 N          61.7610   86.1957   10.5656 N.am    1  UNL1       -0.2778
      2 C          62.7505   85.2634    9.9318 C.2     1  UNL1        0.2541
      3 O          63.1745   85.4743    8.5085 O.2     1  UNL1       -0.2696
      4 H          61.4828   86.0573   11.4998 H       1  UNL1        0.1553
      5 C          63.3161   84.1203   10.7214 C.ar    1  UNL1        0.1103
      6 C          64.1119   82.9753   10.1686 C.ar    1  UNL1        0.1281
      7 N          64.4728   82.0689   11.3080 N.ar    1  UNL1       -0.1619
      8 N          63.9001   82.6537   12.5650 N.ar    1  UNL1       -0.2104
      9 C          63.9372   82.1956   13.9928 C.ar    1  UNL1        0.1049
     10 C          63.2594   83.0054   15.0581 C.ar    1  UNL1        0.0546
     11 C          62.5445   84.2733   14.6956 C.ar    1  UNL1        0.1286
     12 N          61.8667   85.0830   15.7609 N.pl3   1  UNL1       -0.3425
     13 N          62.5074   84.7314   13.2677 N.ar    1  UNL1       -0.2121
     14 C          63.1852   83.9216   12.2024 C.ar    1  UNL1        0.1710
     15 H          61.8910   84.7824   16.6980 H       1  UNL1        0.1437
     16 H          61.3975   85.9152   15.5229 H       1  UNL1        0.1437
     17 C          59.0038   88.9723    7.0203 C.3     1  UNL1        0.1538
     18 N          59.9280   88.6151    8.1465 N.ar    1  UNL1       -0.2461
     19 C          60.2207   87.2295    8.6411 C.ar    1  UNL1        0.1113
     20 C          61.1953   87.3388    9.7761 C.ar    1  UNL1        0.0891
     21 C          61.5049   88.7918    9.9830 C.ar    1  UNL1        0.1158
     22 N          60.7217   89.5806    8.9759 N.ar    1  UNL1       -0.1679
     23 C          62.4346   89.3569   11.0157 C.ar    1  UNL1        0.0215
     24 C          62.9169   90.7723   10.8965 C.ar    1  UNL1        0.0016
     25 C          63.8466   91.3373   11.9292 C.ar    1  UNL1        0.0009
     26 C          64.2939   90.4870   13.0811 C.ar    1  UNL1        0.0114
     27 C          63.8115   89.0717   13.2004 C.ar    1  UNL1        0.0577
     28 CL         64.2588   88.2214   14.3523 Cl      1  UNL1       -0.0822
     29 C          62.8819   88.5067   12.1676 C.ar    1  UNL1        0.0130
@<TRIPOS>BOND
     1    17    18    1
     2    18    19   ar
     3    19    20   ar
     4    20     1    1
     5     1     2   am
     6     2     3    2
     7     2     5    1
     8     5     6   ar
     9     6     7   ar
    10     7     8   ar
    11     8     9   ar
    12     9    10   ar
    13    10    11   ar
    14    11    12    1
    15    11    13   ar
    16    13    14   ar
    17    20    21   ar
    18    21    23    1
    19    23    24   ar
    20    24    25   ar
    21    25    26   ar
    22    26    27   ar
    23    27    28    1
    24    27    29   ar
    25    21    22   ar
    26    22    18   ar
    27    14     5   ar
    28    29    23   ar
    29    14     8   ar
    30     1     4    1
    31    12    15    1
    32    12    16    1
@<TRIPOS>MOLECULE
*****
 29 32 0 0 0
SMALL
GASTEIGER

@<TRIPOS>ATOM
      1 N          64.5073   89.1216   14.7061 N.am    1  UNL1       -0.2778
      2 C          63.5864   89.0282   15.8864 C.2     1  UNL1        0.2541
      3 O          63.0566   90.2778   16.5251 O.2     1  UNL1       -0.2696
      4 H          64.8550   88.3015   14.2870 H       1  UNL1        0.1553
      5 C          63.1953   87.6852   16.4281 C.ar    1  UNL1        0.1103
      6 C          62.6987   87.4045   17.8153 C.ar    1  UNL1        0.1281
      7 N          62.4286   85.9329   17.9220 N.ar    1  UNL1       -0.1619
      8 N          62.7582   85.3040   16.6008 N.ar    1  UNL1       -0.2104
      9 C          62.6882   83.8852   16.1191 C.ar    1  UNL1        0.1049
     10 C          63.0920   83.5494   14.7140 C.ar    1  UNL1        0.0546
     11 C          63.5659   84.6323   13.7907 C.ar    1  UNL1        0.1286
     12 N          63.9697   84.2965   12.3856 N.pl3   1  UNL1       -0.3425
     13 N          63.6359   86.0512   14.2723 N.ar    1  UNL1       -0.2121
     14 C          63.2321   86.3871   15.6774 C.ar    1  UNL1        0.1710
     15 H          63.9237   83.3652   12.0695 H       1  UNL1        0.1437
     16 H          64.2807   85.0073   11.7796 H       1  UNL1        0.1437
     17 C          66.7421   93.8799   14.2109 C.3     1  UNL1        0.1538
     18 N          65.9258   92.6517   13.9368 N.ar    1  UNL1       -0.2461
     19 C          65.8165   91.4489   14.8265 C.ar    1  UNL1        0.1113
     20 C          64.8985   90.4646   14.1644 C.ar    1  UNL1        0.0891
     21 C          64.4403   91.0589   12.8657 C.ar    1  UNL1        0.1158
     22 N          65.0752   92.4107   12.7250 N.ar    1  UNL1       -0.1679
     23 C          63.5106   90.4147   11.8805 C.ar    1  UNL1        0.0215
     24 C          62.9796   91.2062   10.7221 C.ar    1  UNL1        0.0016
     25 C          62.0498   90.5619    9.7370 C.ar    1  UNL1        0.0009
     26 C          61.6510   89.1263    9.9102 C.ar    1  UNL1        0.0114
     27 C          62.1820   88.3349   11.0686 C.ar    1  UNL1        0.0577
     28 CL         61.7832   86.8993   11.2418 Cl      1  UNL1       -0.0822
     29 C          63.1118   88.9791   12.0537 C.ar    1  UNL1        0.0130
@<TRIPOS>BOND
     1    17    18    1
     2    18    19   ar
     3    19    20   ar
     4    20     1    1
     5     1     2   am
     6     2     3    2
     7     2     5    1
     8     5     6   ar
     9     6     7   ar
    10     7     8   ar
    11     8     9   ar
    12     9    10   ar
    13    10    11   ar
    14    11    12    1
    15    11    13   ar
    16    13    14   ar
    17    20    21   ar
    18    21    23    1
    19    23    24   ar
    20    24    25   ar
    21    25    26   ar
    22    26    27   ar
    23    27    28    1
    24    27    29   ar
    25    21    22   ar
    26    22    18   ar
    27    14     5   ar
    28    29    23   ar
    29    14     8   ar
    30     1     4    1
    31    12    15    1
    32    12    16    1
@<TRIPOS>MOLECULE
*****
 29 32 0 0 0
SMALL
GASTEIGER

@<TRIPOS>ATOM
      1 N          64.4810   91.4633   11.8697 N.am    1  UNL1       -0.2778
      2 C          63.4660   90.4708   12.3541 C.2     1  UNL1        0.2541
      3 O          63.3929   90.1232   13.8114 O.2     1  UNL1       -0.2696
      4 H          64.5289   91.6914   10.9132 H       1  UNL1        0.1553
      5 C          62.5239   89.8258   11.3811 C.ar    1  UNL1        0.1103
      6 C          61.6687   90.5396   10.3767 C.ar    1  UNL1        0.1281
      7 N          60.8880   89.5088    9.6166 N.ar    1  UNL1       -0.1619
      8 N          61.2608   88.1578   10.1512 N.ar    1  UNL1       -0.2104
      9 C          60.8102   86.7745    9.7858 C.ar    1  UNL1        0.1049
     10 C          61.3707   85.5871   10.5111 C.ar    1  UNL1        0.0546
     11 C          62.3818   85.7830   11.6017 C.ar    1  UNL1        0.1286
     12 N          62.9423   84.5956   12.3269 N.pl3   1  UNL1       -0.3425
     13 N          62.8324   87.1664   11.9670 N.ar    1  UNL1       -0.2121
     14 C          62.2719   88.3537   11.2418 C.ar    1  UNL1        0.1710
     15 H          62.6466   83.6877   12.0872 H       1  UNL1        0.1437
     16 H          63.6059   84.7242   13.0427 H       1  UNL1        0.1437
     17 C          66.9404   92.7934   16.3488 C.3     1  UNL1        0.1538
     18 N          66.5535   92.7196   14.9015 N.ar    1  UNL1       -0.2461
     19 C          65.4603   91.8707   14.3233 C.ar    1  UNL1        0.1113
     20 C          65.4230   92.1083   12.8427 C.ar    1  UNL1        0.0891
     21 C          66.4931   93.1040   12.5058 C.ar    1  UNL1        0.1158
     22 N          67.1917   93.4818   13.7782 N.ar    1  UNL1       -0.1679
     23 C          66.8090   93.6296   11.1369 C.ar    1  UNL1        0.0215
     24 C          67.6276   92.8056   10.1876 C.ar    1  UNL1        0.0016
     25 C          67.9435   93.3313    8.8187 C.ar    1  UNL1        0.0009
     26 C          67.4408   94.6808    8.3990 C.ar    1  UNL1        0.0114
     27 C          66.6222   95.5047    9.3483 C.ar    1  UNL1        0.0577
     28 CL         66.1195   96.8543    8.9286 Cl      1  UNL1       -0.0822
     29 C          66.3063   94.9791   10.7172 C.ar    1  UNL1        0.0130
@<TRIPOS>BOND
     1    17    18    1
     2    18    19   ar
     3    19    20   ar
     4    20     1    1
     5     1     2   am
     6     2     3    2
     7     2     5    1
     8     5     6   ar
     9     6     7   ar
    10     7     8   ar
    11     8     9   ar
    12     9    10   ar
    13    10    11   ar
    14    11    12    1
    15    11    13   ar
    16    13    14   ar
    17    20    21   ar
    18    21    23    1
    19    23    24   ar
    20    24    25   ar
    21    25    26   ar
    22    26    27   ar
    23    27    28    1
    24    27    29   ar
    25    21    22   ar
    26    22    18   ar
    27    14     5   ar
    28    29    23   ar
    29    14     8   ar
    30     1     4    1
    31    12    15    1
    32    12    16    1
@<TRIPOS>MOLECULE
*****
 29 32 0 0 0
SMALL
GASTEIGER

@<TRIPOS>ATOM
      1 N          62.4288   88.5433   11.1640 N.am    1  UNL1       -0.2778
      2 C          62.7669   89.9785   10.8888 C.2     1  UNL1        0.2541
      3 O          62.2739   90.6382    9.6351 O.2     1  UNL1       -0.2696
      4 H          62.7525   88.1104   11.9869 H       1  UNL1        0.1553
      5 C          63.5981   90.7542   11.8674 C.ar    1  UNL1        0.1103
      6 C          64.5387   91.8735   11.5327 C.ar    1  UNL1        0.1281
      7 N          65.1564   92.3577   12.8110 N.ar    1  UNL1       -0.1619
      8 N          64.5976   91.5377   13.9357 N.ar    1  UNL1       -0.2104
      9 C          64.8412   91.5653   15.4155 C.ar    1  UNL1        0.1049
     10 C          64.1217   90.6018   16.3122 C.ar    1  UNL1        0.0546
     11 C          63.1585   89.6107   15.7290 C.ar    1  UNL1        0.1286
     12 N          62.4390   88.6472   16.6257 N.pl3   1  UNL1       -0.3425
     13 N          62.9148   89.5831   14.2492 N.ar    1  UNL1       -0.2121
     14 C          63.6344   90.5465   13.3525 C.ar    1  UNL1        0.1710
     15 H          62.5989   88.6653   17.5970 H       1  UNL1        0.1437
     16 H          61.8068   87.9967   16.2430 H       1  UNL1        0.1437
     17 C          58.9053   87.3244    7.4251 C.3     1  UNL1        0.1538
     18 N          59.9781   87.2074    8.4669 N.ar    1  UNL1       -0.2461
     19 C          60.5581   88.3366    9.2660 C.ar    1  UNL1        0.1113
     20 C          61.5977   87.7676   10.1855 C.ar    1  UNL1        0.0891
     21 C          61.6603   86.2868    9.9547 C.ar    1  UNL1        0.1158
     22 N          60.6593   85.9406    8.8925 N.ar    1  UNL1       -0.1679
     23 C          62.5650   85.3217   10.6618 C.ar    1  UNL1        0.0215
     24 C          63.3810   84.3419    9.8716 C.ar    1  UNL1        0.0016
     25 C          64.2857   83.3768   10.5788 C.ar    1  UNL1        0.0009
     26 C          64.3744   83.3914   12.0761 C.ar    1  UNL1        0.0114
     27 C          63.5584   84.3711   12.8662 C.ar    1  UNL1        0.0577
     28 CL         63.6471   84.3857   14.3636 Cl      1  UNL1       -0.0822
     29 C          62.6537   85.3362   12.1591 C.ar    1  UNL1        0.0130
@<TRIPOS>BOND
     1    17    18    1
     2    18    19   ar
     3    19    20   ar
     4    20     1    1
     5     1     2   am
     6     2     3    2
     7     2     5    1
     8     5     6   ar
     9     6     7   ar
    10     7     8   ar
    11     8     9   ar
    12     9    10   ar
    13    10    11   ar
    14    11    12    1
    15    11    13   ar
    16    13    14   ar
    17    20    21   ar
    18    21    23    1
    19    23    24   ar
    20    24    25   ar
    21    25    26   ar
    22    26    27   ar
    23    27    28    1
    24    27    29   ar
    25    21    22   ar
    26    22    18   ar
    27    14     5   ar
    28    29    23   ar
    29    14     8   ar
    30     1     4    1
    31    12    15    1
    32    12    16    1
@<TRIPOS>MOLECULE
*****
 29 32 0 0 0
SMALL
GASTEIGER

@<TRIPOS>ATOM
      1 N          63.8525   87.2231   13.5331 N.am    1  UNL1       -0.2778
      2 C          63.6319   86.3492   14.7321 C.2     1  UNL1        0.2541
      3 O          63.5247   86.9617   16.0972 O.2     1  UNL1       -0.2696
      4 H          63.9228   86.8211   12.6372 H       1  UNL1        0.1553
      5 C          63.5184   84.8627   14.5660 C.ar    1  UNL1        0.1103
      6 C          63.3991   83.8584   15.6736 C.ar    1  UNL1        0.1281
      7 N          63.3113   82.4946   15.0552 N.ar    1  UNL1       -0.1619
      8 N          63.3764   82.6561   13.5654 N.ar    1  UNL1       -0.2104
      9 C          63.3357   81.6596   12.4450 C.ar    1  UNL1        0.1049
     10 C          63.4229   82.1267   11.0222 C.ar    1  UNL1        0.0546
     11 C          63.5509   83.5903   10.7198 C.ar    1  UNL1        0.1286
     12 N          63.6382   84.0574    9.2971 N.pl3   1  UNL1       -0.3425
     13 N          63.5917   84.5869   11.8403 N.ar    1  UNL1       -0.2121
     14 C          63.5044   84.1198   13.2630 C.ar    1  UNL1        0.1710
     15 H          63.6114   83.4033    8.5617 H       1  UNL1        0.1437
     16 H          63.7222   85.0180    9.0986 H       1  UNL1        0.1437
     17 C          65.2994   91.9824   15.3041 C.3     1  UNL1        0.1538
     18 N          64.6311   90.8972   14.5132 N.ar    1  UNL1       -0.2461
     19 C          64.8263   89.4218   14.7005 C.ar    1  UNL1        0.1113
     20 C          63.9660   88.7096   13.6991 C.ar    1  UNL1        0.0891
     21 C          63.2390   89.7448   12.8930 C.ar    1  UNL1        0.1158
     22 N          63.6501   91.0968   13.3961 N.ar    1  UNL1       -0.1679
     23 C          62.2710   89.4754   11.7793 C.ar    1  UNL1        0.0215
     24 C          61.1324   90.4196   11.5303 C.ar    1  UNL1        0.0016
     25 C          60.1644   90.1502   10.4166 C.ar    1  UNL1        0.0009
     26 C          60.3351   88.9364    9.5518 C.ar    1  UNL1        0.0114
     27 C          61.4737   87.9922    9.8008 C.ar    1  UNL1        0.0577
     28 CL         61.6443   86.7785    8.9360 Cl      1  UNL1       -0.0822
     29 C          62.4417   88.2617   10.9145 C.ar    1  UNL1        0.0130
@<TRIPOS>BOND
     1    17    18    1
     2    18    19   ar
     3    19    20   ar
     4    20     1    1
     5     1     2   am
     6     2     3    2
     7     2     5    1
     8     5     6   ar
     9     6     7   ar
    10     7     8   ar
    11     8     9   ar
    12     9    10   ar
    13    10    11   ar
    14    11    12    1
    15    11    13   ar
    16    13    14   ar
    17    20    21   ar
    18    21    23    1
    19    23    24   ar
    20    24    25   ar
    21    25    26   ar
    22    26    27   ar
    23    27    28    1
    24    27    29   ar
    25    21    22   ar
    26    22    18   ar
    27    14     5   ar
    28    29    23   ar
    29    14     8   ar
    30     1     4    1
    31    12    15    1
    32    12    16    1
@<TRIPOS>MOLECULE
*****
 29 32 0 0 0
SMALL
GASTEIGER

@<TRIPOS>ATOM
      1 N          62.8431   89.8679   12.3786 N.am    1  UNL1       -0.2778
      2 C          62.6472   90.1929   10.9274 C.2     1  UNL1        0.2541
      3 O          63.5599   91.1701   10.2477 O.2     1  UNL1       -0.2696
      4 H          62.2440   89.2266   12.8246 H       1  UNL1        0.1553
      5 C          61.5385   89.5405   10.1558 C.ar    1  UNL1        0.1103
      6 C          60.1998   90.1457    9.8537 C.ar    1  UNL1        0.1281
      7 N          59.4079   89.1476    9.0621 N.ar    1  UNL1       -0.1619
      8 N          60.2571   87.9255    8.8749 N.ar    1  UNL1       -0.2104
      9 C          60.0016   86.6230    8.1763 C.ar    1  UNL1        0.1049
     10 C          61.0629   85.5632    8.1537 C.ar    1  UNL1        0.0546
     11 C          62.3798   85.8060    8.8297 C.ar    1  UNL1        0.1286
     12 N          63.4411   84.7462    8.8071 N.pl3   1  UNL1       -0.3425
     13 N          62.6354   87.1086    9.5283 N.ar    1  UNL1       -0.2121
     14 C          61.5740   88.1684    9.5509 C.ar    1  UNL1        0.1710
     15 H          63.2734   83.8913    8.3486 H       1  UNL1        0.1437
     16 H          64.3054   84.9055    9.2507 H       1  UNL1        0.1437
     17 C          66.6552   93.2214   13.8286 C.3     1  UNL1        0.1538
     18 N          65.7040   92.0617   13.8167 N.ar    1  UNL1       -0.2461
     19 C          64.6781   91.7736   12.7609 C.ar    1  UNL1        0.1113
     20 C          63.9517   90.5202   13.1502 C.ar    1  UNL1        0.0891
     21 C          64.5286   90.0337   14.4465 C.ar    1  UNL1        0.1158
     22 N          65.6116   90.9864   14.8584 N.ar    1  UNL1       -0.1679
     23 C          64.0982   88.8095   15.1989 C.ar    1  UNL1        0.0215
     24 C          63.2958   88.9470   16.4588 C.ar    1  UNL1        0.0016
     25 C          62.8654   87.7227   17.2111 C.ar    1  UNL1        0.0009
     26 C          63.2373   86.3611   16.7035 C.ar    1  UNL1        0.0114
     27 C          64.0396   86.2237   15.4437 C.ar    1  UNL1        0.0577
     28 CL         64.4115   84.8620   14.9360 Cl      1  UNL1       -0.0822
     29 C          64.4701   87.4479   14.6913 C.ar    1  UNL1        0.0130
@<TRIPOS>BOND
     1    17    18    1
     2    18    19   ar
     3    19    20   ar
     4    20     1    1
     5     1     2   am
     6     2     3    2
     7     2     5    1
     8     5     6   ar
     9     6     7   ar
    10     7     8   ar
    11     8     9   ar
    12     9    10   ar
    13    10    11   ar
    14    11    12    1
    15    11    13   ar
    16    13    14   ar
    17    20    21   ar
    18    21    23    1
    19    23    24   ar
    20    24    25   ar
    21    25    26   ar
    22    26    27   ar
    23    27    28    1
    24    27    29   ar
    25    21    22   ar
    26    22    18   ar
    27    14     5   ar
    28    29    23   ar
    29    14     8   ar
    30     1     4    1
    31    12    15    1
    32    12    16    1
@<TRIPOS>MOLECULE
*****
 29 32 0 0 0
SMALL
GASTEIGER

@<TRIPOS>ATOM
      1 N          62.5892   86.5122   12.3436 N.am    1  UNL1       -0.2778
      2 C          63.3042   86.1366   13.6076 C.2     1  UNL1        0.2541
      3 O          64.1866   87.1356   14.2954 O.2     1  UNL1       -0.2696
      4 H          62.0101   85.8565   11.8921 H       1  UNL1        0.1553
      5 C          63.1366   84.7618   14.1837 C.ar    1  UNL1        0.1103
      6 C          62.9646   84.4294   15.6362 C.ar    1  UNL1        0.1281
      7 N          62.8334   82.9402   15.7585 N.ar    1  UNL1       -0.1619
      8 N          62.9243   82.3521   14.3817 N.ar    1  UNL1       -0.2104
      9 C          62.8606   80.9370   13.8884 C.ar    1  UNL1        0.1049
     10 C          62.9844   80.6476   12.4218 C.ar    1  UNL1        0.0546
     11 C          63.1718   81.7734   11.4484 C.ar    1  UNL1        0.1286
     12 N          63.2955   81.4841    9.9818 N.pl3   1  UNL1       -0.3425
     13 N          63.2355   83.1886   11.9417 N.ar    1  UNL1       -0.2121
     14 C          63.1117   83.4780   13.4083 C.ar    1  UNL1        0.1710
     15 H          63.2538   80.5552    9.6580 H       1  UNL1        0.1437
     16 H          63.4186   82.2230    9.3429 H       1  UNL1        0.1437
     17 C          63.9372   91.5845   11.7644 C.3     1  UNL1        0.1538
     18 N          63.3763   90.2185   11.5012 N.ar    1  UNL1       -0.2461
     19 C          63.4407   89.0444   12.4326 C.ar    1  UNL1        0.1113
     20 C          62.7567   87.8870   11.7674 C.ar    1  UNL1        0.0891
     21 C          62.2696   88.3457   10.4249 C.ar    1  UNL1        0.1158
     22 N          62.6525   89.7866   10.2604 N.ar    1  UNL1       -0.1679
     23 C          61.5294   87.5101    9.4228 C.ar    1  UNL1        0.0215
     24 C          60.0566   87.7106    9.2208 C.ar    1  UNL1        0.0016
     25 C          59.3165   86.8751    8.2187 C.ar    1  UNL1        0.0009
     26 C          60.0492   85.8391    7.4187 C.ar    1  UNL1        0.0114
     27 C          61.5219   85.6386    7.6208 C.ar    1  UNL1        0.0577
     28 CL         62.2546   84.6026    6.8208 Cl      1  UNL1       -0.0822
     29 C          62.2620   86.4742    8.6228 C.ar    1  UNL1        0.0130
@<TRIPOS>BOND
     1    17    18    1
     2    18    19   ar
     3    19    20   ar
     4    20     1    1
     5     1     2   am
     6     2     3    2
     7     2     5    1
     8     5     6   ar
     9     6     7   ar
    10     7     8   ar
    11     8     9   ar
    12     9    10   ar
    13    10    11   ar
    14    11    12    1
    15    11    13   ar
    16    13    14   ar
    17    20    21   ar
    18    21    23    1
    19    23    24   ar
    20    24    25   ar
    21    25    26   ar
    22    26    27   ar
    23    27    28    1
    24    27    29   ar
    25    21    22   ar
    26    22    18   ar
    27    14     5   ar
    28    29    23   ar
    29    14     8   ar
    30     1     4    1
    31    12    15    1
    32    12    16    1
@<TRIPOS>MOLECULE
*****
 29 32 0 0 0
SMALL
GASTEIGER

@<TRIPOS>ATOM
      1 N          64.1054   88.4237   13.6260 N.am    1  UNL1       -0.2778
      2 C          63.2509   89.6228   13.3398 C.2     1  UNL1        0.2541
      3 O          61.9998   89.8588   14.1329 O.2     1  UNL1       -0.2696
      4 H          64.9265   88.2688   13.1054 H       1  UNL1        0.1553
      5 C          63.6475   90.5860   12.2604 C.ar    1  UNL1        0.1103
      6 C          63.1726   90.5605   10.8379 C.ar    1  UNL1        0.1281
      7 N          63.8203   91.7025   10.1124 N.ar    1  UNL1       -0.1619
      8 N          64.6956   92.4338   11.0866 N.ar    1  UNL1       -0.2104
      9 C          65.5760   93.6389   10.9364 C.ar    1  UNL1        0.1049
     10 C          66.3497   94.1540   12.1137 C.ar    1  UNL1        0.0546
     11 C          66.2429   93.4639   13.4413 C.ar    1  UNL1        0.1286
     12 N          67.0166   93.9790   14.6187 N.pl3   1  UNL1       -0.3425
     13 N          65.3624   92.2588   13.5916 N.ar    1  UNL1       -0.2121
     14 C          64.5888   91.7437   12.4142 C.ar    1  UNL1        0.1710
     15 H          67.5945   94.7699   14.5201 H       1  UNL1        0.1437
     16 H          66.9465   93.5261   15.4900 H       1  UNL1        0.1437
     17 C          62.8468   86.4028   18.3390 C.3     1  UNL1        0.1538
     18 N          63.1303   86.5317   16.8717 N.ar    1  UNL1       -0.2461
     19 C          63.5271   87.7896   16.1575 C.ar    1  UNL1        0.1113
     20 C          63.7088   87.4605   14.7054 C.ar    1  UNL1        0.0891
     21 C          63.4244   85.9992   14.5221 C.ar    1  UNL1        0.1158
     22 N          63.0669   85.4251   15.8610 N.ar    1  UNL1       -0.1679
     23 C          63.4866   85.2444   13.2273 C.ar    1  UNL1        0.0215
     24 C          64.3221   84.0030   13.1222 C.ar    1  UNL1        0.0016
     25 C          64.3843   83.2482   11.8274 C.ar    1  UNL1        0.0009
     26 C          63.6110   83.7349   10.6377 C.ar    1  UNL1        0.0114
     27 C          62.7756   84.9763   10.7428 C.ar    1  UNL1        0.0577
     28 CL         62.0024   85.4629    9.5532 Cl      1  UNL1       -0.0822
     29 C          62.7134   85.7310   12.0376 C.ar    1  UNL1        0.0130
@<TRIPOS>BOND
     1    17    18    1
     2    18    19   ar
     3    19    20   ar
     4    20     1    1
     5     1     2   am
     6     2     3    2
     7     2     5    1
     8     5     6   ar
     9     6     7   ar
    10     7     8   ar
    11     8     9   ar
    12     9    10   ar
    13    10    11   ar
    14    11    12    1
    15    11    13   ar
    16    13    14   ar
    17    20    21   ar
    18    21    23    1
    19    23    24   ar
    20    24    25   ar
    21    25    26   ar
    22    26    27   ar
    23    27    28    1
    24    27    29   ar
    25    21    22   ar
    26    22    18   ar
    27    14     5   ar
    28    29    23   ar
    29    14     8   ar
    30     1     4    1
    31    12    15    1
    32    12    16    1
