@<TRIPOS>MOLECULE
*****
 19 20 0 0 0
SMALL
GASTEIGER

@<TRIPOS>ATOM
      1 C          65.7881   91.9415   12.9913 C.3     1  UNL1        0.0321
      2 C          64.6969   91.7816   11.9747 C.3     1  UNL1        0.0053
      3 C          63.5394   90.8694   12.2541 C.3     1  UNL1        0.0004
      4 C          63.4732   90.1170   13.5501 C.3     1  UNL1        0.0000
      5 C          64.5645   90.2769   14.5667 C.3     1  UNL1        0.0004
      6 C          65.7220   91.1891   14.2873 C.3     1  UNL1        0.0053
      7 C          66.2944   92.8602   11.9190 C.ar    1  UNL1       -0.0207
      8 C          65.9758   94.3249   11.9743 C.ar    1  UNL1       -0.0033
      9 C          66.4821   95.2435   10.9021 C.ar    1  UNL1        0.0119
     10 C          67.3069   94.6975    9.7745 C.ar    1  UNL1        0.0682
     11 CL         67.8132   95.6162    8.7023 Cl      1  UNL1       -0.0814
     12 C          67.6255   93.2328    9.7192 C.ar    1  UNL1        0.0679
     13 CL         68.4504   92.6867    8.5916 Cl      1  UNL1       -0.0814
     14 C          67.1193   92.3141   10.7914 C.ar    1  UNL1        0.0080
     15 C          67.0553   92.4204   13.6355 C.3     1  UNL1        0.0578
     16 C          68.3626   91.7685   13.2951 C.3     1  UNL1        0.0174
     17 C          68.0609   93.6511   15.6908 C.3     1  UNL1        0.0859
     18 N          67.0151   93.5513   14.6201 N.3     1  UNL1       -0.2971
     19 H          67.0642   94.4146   14.0792 H       1  UNL1        0.1233
@<TRIPOS>BOND
     1    17    18    1
     2    18    15    1
     3    15    16    1
     4    15     1    1
     5     1     7    1
     6     7     8   ar
     7     8     9   ar
     8     9    10   ar
     9    10    11    1
    10    10    12   ar
    11    12    13    1
    12    12    14   ar
    13     1     2    1
    14     2     3    1
    15     3     4    1
    16     4     5    1
    17     5     6    1
    18     6     1    1
    19    14     7   ar
    20    18    19    1
@<TRIPOS>MOLECULE
*****
 19 20 0 0 0
SMALL
GASTEIGER

@<TRIPOS>ATOM
      1 C          65.7913   91.9549   12.9082 C.3     1  UNL1        0.0321
      2 C          64.6921   91.8126   11.8976 C.3     1  UNL1        0.0053
      3 C          63.5615   90.8593   12.1485 C.3     1  UNL1        0.0004
      4 C          63.5303   90.0482   13.4099 C.3     1  UNL1        0.0000
      5 C          64.6295   90.1906   14.4205 C.3     1  UNL1        0.0004
      6 C          65.7601   91.1439   14.1697 C.3     1  UNL1        0.0053
      7 C          66.2611   92.9335   11.8728 C.ar    1  UNL1       -0.0207
      8 C          66.9671   92.4435   10.6434 C.ar    1  UNL1       -0.0033
      9 C          67.4368   93.4220    9.6081 C.ar    1  UNL1        0.0119
     10 C          67.2005   94.8905    9.8022 C.ar    1  UNL1        0.0682
     11 CL         67.6702   95.8690    8.7668 Cl      1  UNL1       -0.0814
     12 C          66.4944   95.3805   11.0316 C.ar    1  UNL1        0.0679
     13 CL         66.2581   96.8490   11.2257 Cl      1  UNL1       -0.0814
     14 C          66.0248   94.4020   12.0669 C.ar    1  UNL1        0.0080
     15 C          67.0538   92.4371   13.5592 C.3     1  UNL1        0.0578
     16 C          68.3694   91.8142   13.1973 C.3     1  UNL1        0.0174
     17 C          68.0262   93.6081   15.6647 C.3     1  UNL1        0.0859
     18 N          67.0005   93.5422   14.5721 N.3     1  UNL1       -0.2971
     19 H          67.0644   94.4190   14.0549 H       1  UNL1        0.1233
@<TRIPOS>BOND
     1    17    18    1
     2    18    15    1
     3    15    16    1
     4    15     1    1
     5     1     7    1
     6     7     8   ar
     7     8     9   ar
     8     9    10   ar
     9    10    11    1
    10    10    12   ar
    11    12    13    1
    12    12    14   ar
    13     1     2    1
    14     2     3    1
    15     3     4    1
    16     4     5    1
    17     5     6    1
    18     6     1    1
    19    14     7   ar
    20    18    19    1
@<TRIPOS>MOLECULE
*****
 19 20 0 0 0
SMALL
GASTEIGER

@<TRIPOS>ATOM
      1 C          64.1742   90.2920   13.4622 C.3     1  UNL1        0.0321
      2 C          65.2648   90.6472   14.4287 C.3     1  UNL1        0.0053
      3 C          66.2267   91.7508   14.1018 C.3     1  UNL1        0.0004
      4 C          66.0978   92.4993   12.8083 C.3     1  UNL1        0.0000
      5 C          65.0071   92.1442   11.8417 C.3     1  UNL1        0.0004
      6 C          64.0453   91.0405   12.1687 C.3     1  UNL1        0.0053
      7 C          63.8900   89.3006   14.5514 C.ar    1  UNL1       -0.0207
      8 C          63.2382   89.7517   15.8248 C.ar    1  UNL1       -0.0033
      9 C          62.9540   88.7602   16.9140 C.ar    1  UNL1        0.0119
     10 C          63.3216   87.3177   16.7296 C.ar    1  UNL1        0.0682
     11 CL         63.0374   86.3262   17.8188 Cl      1  UNL1       -0.0814
     12 C          63.9734   86.8666   15.4562 C.ar    1  UNL1        0.0679
     13 CL         64.3410   85.4240   15.2719 Cl      1  UNL1       -0.0814
     14 C          64.2575   87.8580   14.3671 C.ar    1  UNL1        0.0080
     15 C          62.9847   89.5926   12.8739 C.3     1  UNL1        0.0578
     16 C          63.1814   88.4663   11.9029 C.3     1  UNL1        0.0174
     17 C          60.4494   89.7542   12.3297 C.3     1  UNL1        0.0859
     18 N          61.5986   90.0194   13.2566 N.3     1  UNL1       -0.2971
     19 H          61.3799   89.5539   14.1375 H       1  UNL1        0.1233
@<TRIPOS>BOND
     1    17    18    1
     2    18    15    1
     3    15    16    1
     4    15     1    1
     5     1     7    1
     6     7     8   ar
     7     8     9   ar
     8     9    10   ar
     9    10    11    1
    10    10    12   ar
    11    12    13    1
    12    12    14   ar
    13     1     2    1
    14     2     3    1
    15     3     4    1
    16     4     5    1
    17     5     6    1
    18     6     1    1
    19    14     7   ar
    20    18    19    1
@<TRIPOS>MOLECULE
*****
 19 20 0 0 0
SMALL
GASTEIGER

@<TRIPOS>ATOM
      1 C          61.3793   87.6750    9.7367 C.3     1  UNL1        0.0321
      2 C          62.7276   87.0595    9.5058 C.3     1  UNL1        0.0053
      3 C          62.8806   85.9346    8.5255 C.3     1  UNL1        0.0004
      4 C          61.6853   85.4252    7.7759 C.3     1  UNL1        0.0000
      5 C          60.3370   86.0407    8.0067 C.3     1  UNL1        0.0004
      6 C          60.1840   87.1656    8.9871 C.3     1  UNL1        0.0053
      7 C          62.2061   88.4974   10.6802 C.ar    1  UNL1       -0.0207
      8 C          62.4802   89.9401   10.3749 C.ar    1  UNL1       -0.0033
      9 C          63.3069   90.7624   11.3184 C.ar    1  UNL1        0.0119
     10 C          63.8595   90.1420   12.5673 C.ar    1  UNL1        0.0682
     11 CL         64.6862   90.9644   13.5109 Cl      1  UNL1       -0.0814
     12 C          63.5853   88.6992   12.8727 C.ar    1  UNL1        0.0679
     13 CL         64.1379   88.0788   14.1216 Cl      1  UNL1       -0.0814
     14 C          62.7586   87.8769   11.9291 C.ar    1  UNL1        0.0080
     15 C          60.3181   88.5761   10.2952 C.3     1  UNL1        0.0578
     16 C          59.8681   89.7769    9.5171 C.3     1  UNL1        0.0174
     17 C          59.0621   89.3743   12.4249 C.3     1  UNL1        0.0859
     18 N          59.7070   88.2764   11.6319 N.3     1  UNL1       -0.2971
     19 H          58.9915   87.5664   11.4760 H       1  UNL1        0.1233
@<TRIPOS>BOND
     1    17    18    1
     2    18    15    1
     3    15    16    1
     4    15     1    1
     5     1     7    1
     6     7     8   ar
     7     8     9   ar
     8     9    10   ar
     9    10    11    1
    10    10    12   ar
    11    12    13    1
    12    12    14   ar
    13     1     2    1
    14     2     3    1
    15     3     4    1
    16     4     5    1
    17     5     6    1
    18     6     1    1
    19    14     7   ar
    20    18    19    1
@<TRIPOS>MOLECULE
*****
 19 20 0 0 0
SMALL
GASTEIGER

@<TRIPOS>ATOM
      1 C          64.2443   90.4644   13.3613 C.3     1  UNL1        0.0321
      2 C          64.2834   91.2670   12.0947 C.3     1  UNL1        0.0053
      3 C          65.2810   92.3765   11.9403 C.3     1  UNL1        0.0004
      4 C          66.2394   92.6834   13.0526 C.3     1  UNL1        0.0000
      5 C          66.2003   91.8809   14.3192 C.3     1  UNL1        0.0004
      6 C          65.2027   90.7713   14.4736 C.3     1  UNL1        0.0053
      7 C          63.1389   89.7984   12.5967 C.ar    1  UNL1       -0.0207
      8 C          63.3149   88.3970   12.0915 C.ar    1  UNL1       -0.0033
      9 C          62.2096   87.7311   11.3269 C.ar    1  UNL1        0.0119
     10 C          60.9282   88.4664   11.0675 C.ar    1  UNL1        0.0682
     11 CL         59.8228   87.8004   10.3029 Cl      1  UNL1       -0.0814
     12 C          60.7521   89.8678   11.5727 C.ar    1  UNL1        0.0679
     13 CL         59.4707   90.6031   11.3133 Cl      1  UNL1       -0.0814
     14 C          61.8575   90.5337   12.3373 C.ar    1  UNL1        0.0080
     15 C          63.8213   89.4305   14.3624 C.3     1  UNL1        0.0578
     16 C          64.4717   88.0789   14.3652 C.3     1  UNL1        0.0174
     17 C          62.8452   89.2190   16.7608 C.3     1  UNL1        0.0859
     18 N          62.7477   89.7483   15.3607 N.3     1  UNL1       -0.2971
     19 H          62.7040   90.7648   15.4325 H       1  UNL1        0.1233
@<TRIPOS>BOND
     1    17    18    1
     2    18    15    1
     3    15    16    1
     4    15     1    1
     5     1     7    1
     6     7     8   ar
     7     8     9   ar
     8     9    10   ar
     9    10    11    1
    10    10    12   ar
    11    12    13    1
    12    12    14   ar
    13     1     2    1
    14     2     3    1
    15     3     4    1
    16     4     5    1
    17     5     6    1
    18     6     1    1
    19    14     7   ar
    20    18    19    1
@<TRIPOS>MOLECULE
*****
 19 20 0 0 0
SMALL
GASTEIGER

@<TRIPOS>ATOM
      1 C          64.9105   91.8553   11.8253 C.3     1  UNL1        0.0321
      2 C          64.3153   90.8133   12.7251 C.3     1  UNL1        0.0053
      3 C          63.1256   90.0208   12.2707 C.3     1  UNL1        0.0004
      4 C          62.5311   90.2704   10.9163 C.3     1  UNL1        0.0000
      5 C          63.1263   91.3125   10.0165 C.3     1  UNL1        0.0004
      6 C          64.3160   92.1050   10.4709 C.3     1  UNL1        0.0053
      7 C          65.8216   91.9831   13.0101 C.ar    1  UNL1       -0.0207
      8 C          67.3076   91.8921   12.8267 C.ar    1  UNL1       -0.0033
      9 C          68.2186   92.0198   14.0114 C.ar    1  UNL1        0.0119
     10 C          67.6438   92.2386   15.3795 C.ar    1  UNL1        0.0682
     11 CL         68.5549   92.3663   16.5642 Cl      1  UNL1       -0.0814
     12 C          66.1579   92.3295   15.5629 C.ar    1  UNL1        0.0679
     13 CL         65.5830   92.5483   16.9310 Cl      1  UNL1       -0.0814
     14 C          65.2468   92.2018   14.3782 C.ar    1  UNL1        0.0080
     15 C          65.8221   92.9418   11.3369 C.3     1  UNL1        0.0578
     16 C          66.7933   92.6640   10.2281 C.3     1  UNL1        0.0174
     17 C          66.2346   95.5025   11.1852 C.3     1  UNL1        0.0859
     18 N          65.7624   94.3062   11.9573 N.3     1  UNL1       -0.2971
     19 H          64.7862   94.4778   12.1981 H       1  UNL1        0.1233
@<TRIPOS>BOND
     1    17    18    1
     2    18    15    1
     3    15    16    1
     4    15     1    1
     5     1     7    1
     6     7     8   ar
     7     8     9   ar
     8     9    10   ar
     9    10    11    1
    10    10    12   ar
    11    12    13    1
    12    12    14   ar
    13     1     2    1
    14     2     3    1
    15     3     4    1
    16     4     5    1
    17     5     6    1
    18     6     1    1
    19    14     7   ar
    20    18    19    1
@<TRIPOS>MOLECULE
*****
 19 20 0 0 0
SMALL
GASTEIGER

@<TRIPOS>ATOM
      1 C          62.5722   85.5262   10.5423 C.3     1  UNL1        0.0321
      2 C          62.7274   85.7556   12.0165 C.3     1  UNL1        0.0053
      3 C          63.4179   84.7305   12.8664 C.3     1  UNL1        0.0004
      4 C          63.9532   83.4760   12.2421 C.3     1  UNL1        0.0000
      5 C          63.7980   83.2467   10.7679 C.3     1  UNL1        0.0004
      6 C          63.1075   84.2718    9.9180 C.3     1  UNL1        0.0053
      7 C          61.9021   86.8622   10.6700 C.ar    1  UNL1       -0.0207
      8 C          60.4992   86.9507   11.1934 C.ar    1  UNL1       -0.0033
      9 C          59.8292   88.2866   11.3210 C.ar    1  UNL1        0.0119
     10 C          60.5621   89.5341   10.9254 C.ar    1  UNL1        0.0682
     11 CL         59.8921   90.8701   11.0531 Cl      1  UNL1       -0.0814
     12 C          61.9651   89.4457   10.4020 C.ar    1  UNL1        0.0679
     13 CL         62.6980   90.6932   10.0064 Cl      1  UNL1       -0.0814
     14 C          62.6350   88.1097   10.2744 C.ar    1  UNL1        0.0080
     15 C          62.1843   85.7609    9.1124 C.3     1  UNL1        0.0578
     16 C          63.1888   85.5505    8.0186 C.3     1  UNL1        0.0174
     17 C          60.1730   85.8101    7.4685 C.3     1  UNL1        0.0859
     18 N          60.7917   86.2058    8.7765 N.3     1  UNL1       -0.2971
     19 H          60.1824   85.8463    9.5112 H       1  UNL1        0.1233
@<TRIPOS>BOND
     1    17    18    1
     2    18    15    1
     3    15    16    1
     4    15     1    1
     5     1     7    1
     6     7     8   ar
     7     8     9   ar
     8     9    10   ar
     9    10    11    1
    10    10    12   ar
    11    12    13    1
    12    12    14   ar
    13     1     2    1
    14     2     3    1
    15     3     4    1
    16     4     5    1
    17     5     6    1
    18     6     1    1
    19    14     7   ar
    20    18    19    1
@<TRIPOS>MOLECULE
*****
 19 20 0 0 0
SMALL
GASTEIGER

@<TRIPOS>ATOM
      1 C          61.4279   87.3687    9.1369 C.3     1  UNL1        0.0321
      2 C          62.7574   86.6763    9.1903 C.3     1  UNL1        0.0053
      3 C          63.0035   85.4591    8.3490 C.3     1  UNL1        0.0004
      4 C          61.9199   84.9343    7.4543 C.3     1  UNL1        0.0000
      5 C          60.5904   85.6266    7.4009 C.3     1  UNL1        0.0004
      6 C          60.3443   86.8438    8.2422 C.3     1  UNL1        0.0053
      7 C          62.1350   88.2390   10.1333 C.ar    1  UNL1       -0.0207
      8 C          62.4613   87.7057   11.4967 C.ar    1  UNL1       -0.0033
      9 C          63.1683   88.5760   12.4930 C.ar    1  UNL1        0.0119
     10 C          63.5490   89.9797   12.1259 C.ar    1  UNL1        0.0682
     11 CL         64.2560   90.8500   13.1222 Cl      1  UNL1       -0.0814
     12 C          63.2226   90.5130   10.7624 C.ar    1  UNL1        0.0679
     13 CL         63.6033   91.9167   10.3953 Cl      1  UNL1       -0.0814
     14 C          62.5156   89.6427    9.7662 C.ar    1  UNL1        0.0080
     15 C          60.3439   88.3633    9.4296 C.3     1  UNL1        0.0578
     16 C          59.5157   88.2261   10.6727 C.3     1  UNL1        0.0174
     17 C          59.4015   89.2354    7.1709 C.3     1  UNL1        0.0859
     18 N          60.0880   89.4952    8.4791 N.3     1  UNL1       -0.2971
     19 H          59.5187   90.1774    8.9800 H       1  UNL1        0.1233
@<TRIPOS>BOND
     1    17    18    1
     2    18    15    1
     3    15    16    1
     4    15     1    1
     5     1     7    1
     6     7     8   ar
     7     8     9   ar
     8     9    10   ar
     9    10    11    1
    10    10    12   ar
    11    12    13    1
    12    12    14   ar
    13     1     2    1
    14     2     3    1
    15     3     4    1
    16     4     5    1
    17     5     6    1
    18     6     1    1
    19    14     7   ar
    20    18    19    1
@<TRIPOS>MOLECULE
*****
 19 20 0 0 0
SMALL
GASTEIGER

@<TRIPOS>ATOM
      1 C          60.9714   87.3916    9.2826 C.3     1  UNL1        0.0321
      2 C          60.4566   86.2374    8.4748 C.3     1  UNL1        0.0053
      3 C          59.3940   86.4609    7.4400 C.3     1  UNL1        0.0004
      4 C          58.8461   87.8387    7.2130 C.3     1  UNL1        0.0000
      5 C          59.3609   88.9930    8.0209 C.3     1  UNL1        0.0004
      6 C          60.4235   88.7695    9.0557 C.3     1  UNL1        0.0053
      7 C          61.7977   86.2807    9.8598 C.ar    1  UNL1       -0.0207
      8 C          62.7241   85.4983    8.9769 C.ar    1  UNL1       -0.0033
      9 C          63.5503   84.3874    9.5541 C.ar    1  UNL1        0.0119
     10 C          63.4502   84.0589   11.0142 C.ar    1  UNL1        0.0682
     11 CL         64.2766   82.9480   11.5914 Cl      1  UNL1       -0.0814
     12 C          62.5239   84.8413   11.8972 C.ar    1  UNL1        0.0679
     13 CL         62.4238   84.5128   13.3573 Cl      1  UNL1       -0.0814
     14 C          61.6976   85.9522   11.3200 C.ar    1  UNL1        0.0080
     15 C          61.7731   88.1601   10.2910 C.3     1  UNL1        0.0578
     16 C          63.1394   88.6662    9.9346 C.3     1  UNL1        0.0174
     17 C          61.5658   89.6834   12.3854 C.3     1  UNL1        0.0859
     18 N          61.2085   88.4224   11.6557 N.3     1  UNL1       -0.2971
     19 H          60.1930   88.4148   11.5606 H       1  UNL1        0.1233
@<TRIPOS>BOND
     1    17    18    1
     2    18    15    1
     3    15    16    1
     4    15     1    1
     5     1     7    1
     6     7     8   ar
     7     8     9   ar
     8     9    10   ar
     9    10    11    1
    10    10    12   ar
    11    12    13    1
    12    12    14   ar
    13     1     2    1
    14     2     3    1
    15     3     4    1
    16     4     5    1
    17     5     6    1
    18     6     1    1
    19    14     7   ar
    20    18    19    1
