@<TRIPOS>MOLECULE
*****
 29 32 0 0 0
SMALL
GASTEIGER

@<TRIPOS>ATOM
      1 O          63.6696   84.7933   12.6300 O.2     1  UNL1       -0.2522
      2 C          63.2071   84.6693   14.0515 C.2     1  UNL1        0.3080
      3 N          62.7314   83.3457   14.5726 N.am    1  UNL1       -0.2681
      4 N          63.2203   85.8690   14.9518 N.am    1  UNL1       -0.2559
      5 C          62.7380   85.6364   16.3530 C.3     1  UNL1        0.1425
      6 C          62.6303   86.6201   17.4804 C.3     1  UNL1        0.2268
      7 O          62.9783   88.0790   17.4849 O.3     1  UNL1       -0.4739
      8 C          63.5200   88.9149   16.3634 C.ar    1  UNL1        0.1362
      9 C          63.7301   90.3370   16.7917 C.ar    1  UNL1        0.0366
     10 C          64.2677   91.3423   15.8168 C.ar    1  UNL1        0.0031
     11 C          64.5952   90.9255   14.4136 C.ar    1  UNL1        0.0000
     12 C          64.3850   89.5033   13.9852 C.ar    1  UNL1        0.0004
     13 C          63.8474   88.4981   14.9601 C.ar    1  UNL1        0.0317
     14 C          63.7140   87.1425   14.3320 C.3     1  UNL1        0.1248
     15 H          62.4278   83.2643   15.5056 H       1  UNL1        0.1564
     16 C          62.7182   82.1459   13.6723 C.ar    1  UNL1        0.0525
     17 C          62.2966   80.8102   14.2088 C.ar    1  UNL1        0.0156
     18 C          62.2835   79.6105   13.3084 C.ar    1  UNL1        0.0135
     19 C          62.6918   79.7467   11.8715 C.ar    1  UNL1        0.0683
     20 CL         62.6786   78.5470   10.9712 Cl      1  UNL1       -0.0814
     21 C          63.1134   81.0825   11.3350 C.ar    1  UNL1        0.0694
     22 CL         63.5217   81.2186    9.8981 Cl      1  UNL1       -0.0813
     23 C          63.1266   82.2821   12.2354 C.ar    1  UNL1        0.0270
     24 C          65.1327   91.9307   13.4387 C.ar    1  UNL1        0.0031
     25 C          64.7445   91.8543   11.9918 C.ar    1  UNL1        0.0207
     26 C          65.2821   92.8595   11.0169 C.ar    1  UNL1        0.0989
     27 N          66.2079   93.9413   11.4889 N.ar    1  UNL1       -0.2423
     28 C          66.5961   94.0178   12.9358 C.ar    1  UNL1        0.0989
     29 C          66.0585   93.0124   13.9107 C.ar    1  UNL1        0.0207
@<TRIPOS>BOND
     1     1     2    2
     2     2     3   am
     3     3    16    1
     4    16    17   ar
     5    17    18   ar
     6    18    19   ar
     7    19    20    1
     8    19    21   ar
     9    21    22    1
    10    21    23   ar
    11     2     4   am
    12     4     5    1
    13     5     6    1
    14     6     7    1
    15     7     8    1
    16     8     9   ar
    17     9    10   ar
    18    10    11   ar
    19    11    24    1
    20    24    25   ar
    21    25    26   ar
    22    26    27   ar
    23    27    28   ar
    24    28    29   ar
    25    11    12   ar
    26    12    13   ar
    27    13    14    1
    28    23    16   ar
    29    14     4    1
    30    13     8   ar
    31    29    24   ar
    32     3    15    1
@<TRIPOS>MOLECULE
*****
 29 32 0 0 0
SMALL
GASTEIGER

@<TRIPOS>ATOM
      1 O          64.0939   85.7589   12.9846 O.2     1  UNL1       -0.2522
      2 C          63.5938   85.9801   14.3813 C.2     1  UNL1        0.3080
      3 N          62.9868   84.8437   15.1494 N.am    1  UNL1       -0.2681
      4 N          63.7008   87.3378   15.0100 N.am    1  UNL1       -0.2559
      5 C          63.1712   87.4507   16.4089 C.3     1  UNL1        0.1425
      6 C          63.1332   88.6569   17.3000 C.3     1  UNL1        0.2268
      7 O          63.6153   90.0477   17.0123 O.3     1  UNL1       -0.4739
      8 C          64.2546   90.5762   15.7624 C.ar    1  UNL1        0.1362
      9 C          64.5876   92.0331   15.8911 C.ar    1  UNL1        0.0366
     10 C          65.2356   92.7580   14.7489 C.ar    1  UNL1        0.0031
     11 C          65.5506   92.0261   13.4781 C.ar    1  UNL1        0.0000
     12 C          65.2175   90.5691   13.3494 C.ar    1  UNL1        0.0004
     13 C          64.5695   89.8442   14.4916 C.ar    1  UNL1        0.0317
     14 C          64.3230   88.4030   14.1568 C.3     1  UNL1        0.1248
     15 H          62.6585   84.9889   16.0661 H       1  UNL1        0.1564
     16 C          62.8798   83.4859   14.5206 C.ar    1  UNL1        0.0525
     17 C          64.0428   82.9163   13.7638 C.ar    1  UNL1        0.0156
     18 C          63.9358   81.5586   13.1351 C.ar    1  UNL1        0.0135
     19 C          62.6659   80.7706   13.2633 C.ar    1  UNL1        0.0683
     20 CL         62.5591   79.4129   12.6345 Cl      1  UNL1       -0.0814
     21 C          61.5030   81.3404   14.0201 C.ar    1  UNL1        0.0694
     22 CL         60.2330   80.5523   14.1483 Cl      1  UNL1       -0.0813
     23 C          61.6099   82.6980   14.6488 C.ar    1  UNL1        0.0270
     24 C          66.1986   92.7509   12.3359 C.ar    1  UNL1        0.0031
     25 C          66.0130   94.2318   12.1854 C.ar    1  UNL1        0.0207
     26 C          66.6610   94.9566   11.0433 C.ar    1  UNL1        0.0989
     27 N          67.4947   94.2007   10.0515 N.ar    1  UNL1       -0.2423
     28 C          67.6803   92.7198   10.2020 C.ar    1  UNL1        0.0989
     29 C          67.0323   91.9950   11.3442 C.ar    1  UNL1        0.0207
@<TRIPOS>BOND
     1     1     2    2
     2     2     3   am
     3     3    16    1
     4    16    17   ar
     5    17    18   ar
     6    18    19   ar
     7    19    20    1
     8    19    21   ar
     9    21    22    1
    10    21    23   ar
    11     2     4   am
    12     4     5    1
    13     5     6    1
    14     6     7    1
    15     7     8    1
    16     8     9   ar
    17     9    10   ar
    18    10    11   ar
    19    11    24    1
    20    24    25   ar
    21    25    26   ar
    22    26    27   ar
    23    27    28   ar
    24    28    29   ar
    25    11    12   ar
    26    12    13   ar
    27    13    14    1
    28    23    16   ar
    29    14     4    1
    30    13     8   ar
    31    29    24   ar
    32     3    15    1
@<TRIPOS>MOLECULE
*****
 29 32 0 0 0
SMALL
GASTEIGER

@<TRIPOS>ATOM
      1 O          72.3321   74.6060   13.2037 O.2     1  UNL1       -0.2522
      2 C          72.7110   75.5635   14.2944 C.2     1  UNL1        0.3080
      3 N          72.8759   75.0704   15.7014 N.am    1  UNL1       -0.2681
      4 N          72.9248   77.0141   13.9781 N.am    1  UNL1       -0.2559
      5 C          73.3006   77.8850   15.1402 C.3     1  UNL1        0.1425
      6 C          73.5790   79.3590   15.1527 C.3     1  UNL1        0.2268
      7 O          73.5504   80.3258   14.0064 O.3     1  UNL1       -0.4739
      8 C          73.2364   80.0578   12.5643 C.ar    1  UNL1        0.1362
      9 C          73.3208   81.3101   11.7431 C.ar    1  UNL1        0.0366
     10 C          73.0422   81.2612   10.2699 C.ar    1  UNL1        0.0031
     11 C          72.6792   79.9600    9.6181 C.ar    1  UNL1        0.0000
     12 C          72.5948   78.7076   10.4394 C.ar    1  UNL1        0.0004
     13 C          72.8734   78.7565   11.9125 C.ar    1  UNL1        0.0317
     14 C          72.7348   77.4019   12.5417 C.3     1  UNL1        0.1248
     15 H          73.1246   75.6989   16.4173 H       1  UNL1        0.1564
     16 C          72.6620   73.6197   16.0177 C.ar    1  UNL1        0.0525
     17 C          73.5242   72.5762   15.3715 C.ar    1  UNL1        0.0156
     18 C          73.3103   71.1256   15.6879 C.ar    1  UNL1        0.0135
     19 C          72.2342   70.7186   16.6503 C.ar    1  UNL1        0.0683
     20 CL         72.0203   69.2680   16.9666 Cl      1  UNL1       -0.0814
     21 C          71.3720   71.7622   17.2964 C.ar    1  UNL1        0.0694
     22 CL         70.2958   71.3552   18.2589 Cl      1  UNL1       -0.0813
     23 C          71.5859   73.2127   16.9801 C.ar    1  UNL1        0.0270
     24 C          72.4006   79.9110    8.1451 C.ar    1  UNL1        0.0031
     25 C          73.1196   78.9202    7.2782 C.ar    1  UNL1        0.0207
     26 C          72.8410   78.8713    5.8052 C.ar    1  UNL1        0.0989
     27 N          71.8433   79.8132    5.1989 N.ar    1  UNL1       -0.2423
     28 C          71.1243   80.8040    6.0657 C.ar    1  UNL1        0.0989
     29 C          71.4030   80.8529    7.5388 C.ar    1  UNL1        0.0207
@<TRIPOS>BOND
     1     1     2    2
     2     2     3   am
     3     3    16    1
     4    16    17   ar
     5    17    18   ar
     6    18    19   ar
     7    19    20    1
     8    19    21   ar
     9    21    22    1
    10    21    23   ar
    11     2     4   am
    12     4     5    1
    13     5     6    1
    14     6     7    1
    15     7     8    1
    16     8     9   ar
    17     9    10   ar
    18    10    11   ar
    19    11    24    1
    20    24    25   ar
    21    25    26   ar
    22    26    27   ar
    23    27    28   ar
    24    28    29   ar
    25    11    12   ar
    26    12    13   ar
    27    13    14    1
    28    23    16   ar
    29    14     4    1
    30    13     8   ar
    31    29    24   ar
    32     3    15    1
@<TRIPOS>MOLECULE
*****
 29 32 0 0 0
SMALL
GASTEIGER

@<TRIPOS>ATOM
      1 O          71.6087   74.2697   11.7881 O.2     1  UNL1       -0.2522
      2 C          71.8224   74.9781   13.0929 C.2     1  UNL1        0.3080
      3 N          71.7902   74.2070   14.3790 N.am    1  UNL1       -0.2681
      4 N          72.0682   76.4577   13.1114 N.am    1  UNL1       -0.2559
      5 C          72.2693   77.0670   14.4673 C.3     1  UNL1        0.1425
      6 C          72.5323   78.5015   14.8184 C.3     1  UNL1        0.2268
      7 O          72.6592   79.6808   13.9003 O.3     1  UNL1       -0.4739
      8 C          72.5544   79.7171   12.4044 C.ar    1  UNL1        0.1362
      9 C          72.7449   81.1077   11.8752 C.ar    1  UNL1        0.0366
     10 C          72.6780   81.3641   10.3988 C.ar    1  UNL1        0.0031
     11 C          72.4204   80.2299    9.4515 C.ar    1  UNL1        0.0000
     12 C          72.2299   78.8393    9.9807 C.ar    1  UNL1        0.0004
     13 C          72.2968   78.5829   11.4571 C.ar    1  UNL1        0.0317
     14 C          72.0805   77.1323   11.7719 C.3     1  UNL1        0.1248
     15 H          71.9305   74.6719   15.2354 H       1  UNL1        0.1564
     16 C          71.5444   72.7273   14.3604 C.ar    1  UNL1        0.0525
     17 C          72.3409   71.8234   15.2539 C.ar    1  UNL1        0.0156
     18 C          72.0950   70.3438   15.2352 C.ar    1  UNL1        0.0135
     19 C          71.0526   69.7681   14.3231 C.ar    1  UNL1        0.0683
     20 CL         70.8068   68.2885   14.3045 Cl      1  UNL1       -0.0814
     21 C          70.2561   70.6721   13.4296 C.ar    1  UNL1        0.0694
     22 CL         69.2136   70.0964   12.5175 Cl      1  UNL1       -0.0813
     23 C          70.5019   72.1516   13.4483 C.ar    1  UNL1        0.0270
     24 C          72.3534   80.4862    7.9751 C.ar    1  UNL1        0.0031
     25 C          72.6499   79.3791    7.0075 C.ar    1  UNL1        0.0207
     26 C          72.5829   79.6354    5.5311 C.ar    1  UNL1        0.0989
     27 N          72.2195   80.9990    5.0223 N.ar    1  UNL1       -0.2423
     28 C          71.9231   82.1061    5.9900 C.ar    1  UNL1        0.0989
     29 C          71.9901   81.8497    7.4664 C.ar    1  UNL1        0.0207
@<TRIPOS>BOND
     1     1     2    2
     2     2     3   am
     3     3    16    1
     4    16    17   ar
     5    17    18   ar
     6    18    19   ar
     7    19    20    1
     8    19    21   ar
     9    21    22    1
    10    21    23   ar
    11     2     4   am
    12     4     5    1
    13     5     6    1
    14     6     7    1
    15     7     8    1
    16     8     9   ar
    17     9    10   ar
    18    10    11   ar
    19    11    24    1
    20    24    25   ar
    21    25    26   ar
    22    26    27   ar
    23    27    28   ar
    24    28    29   ar
    25    11    12   ar
    26    12    13   ar
    27    13    14    1
    28    23    16   ar
    29    14     4    1
    30    13     8   ar
    31    29    24   ar
    32     3    15    1
@<TRIPOS>MOLECULE
*****
 29 32 0 0 0
SMALL
GASTEIGER

@<TRIPOS>ATOM
      1 O          71.5351   77.7951   10.4390 O.2     1  UNL1       -0.2522
      2 C          72.1975   78.4048   11.6388 C.2     1  UNL1        0.3080
      3 N          72.6395   79.8377   11.6043 N.am    1  UNL1       -0.2681
      4 N          72.4178   77.5814   12.8731 N.am    1  UNL1       -0.2559
      5 C          73.0880   78.2868   14.0148 C.3     1  UNL1        0.1425
      6 C          73.4447   77.7464   15.3680 C.3     1  UNL1        0.2268
      7 O          73.2194   76.3675   15.9134 O.3     1  UNL1       -0.4739
      8 C          72.5818   75.1882   15.2407 C.ar    1  UNL1        0.1362
      9 C          72.5540   73.9910   16.1439 C.ar    1  UNL1        0.0366
     10 C          71.9563   72.7020   15.6626 C.ar    1  UNL1        0.0031
     11 C          71.3864   72.6104   14.2781 C.ar    1  UNL1        0.0000
     12 C          71.4142   73.8078   13.3749 C.ar    1  UNL1        0.0004
     13 C          72.0119   75.0966   13.8562 C.ar    1  UNL1        0.0317
     14 C          71.9390   76.1617   12.8025 C.3     1  UNL1        0.1248
     15 H          73.0743   80.2378   12.3918 H       1  UNL1        0.1564
     16 C          72.4191   80.6611   10.3699 C.ar    1  UNL1        0.0525
     17 C          72.4842   82.1577   10.4452 C.ar    1  UNL1        0.0156
     18 C          72.2638   82.9810    9.2108 C.ar    1  UNL1        0.0135
     19 C          71.9784   82.3076    7.9012 C.ar    1  UNL1        0.0683
     20 CL         71.7580   83.1310    6.6669 Cl      1  UNL1       -0.0814
     21 C          71.9133   80.8110    7.8260 C.ar    1  UNL1        0.0694
     22 CL         71.6279   80.1376    6.5163 Cl      1  UNL1       -0.0813
     23 C          72.1337   79.9877    9.0603 C.ar    1  UNL1        0.0270
     24 C          70.7887   71.3216   13.7968 C.ar    1  UNL1        0.0031
     25 C          69.7490   71.3346   12.7157 C.ar    1  UNL1        0.0207
     26 C          69.1513   70.0458   12.2344 C.ar    1  UNL1        0.0989
     27 N          69.5934   68.7439   12.8343 N.ar    1  UNL1       -0.2423
     28 C          70.6331   68.7309   13.9154 C.ar    1  UNL1        0.0989
     29 C          71.2308   70.0198   14.3967 C.ar    1  UNL1        0.0207
@<TRIPOS>BOND
     1     1     2    2
     2     2     3   am
     3     3    16    1
     4    16    17   ar
     5    17    18   ar
     6    18    19   ar
     7    19    20    1
     8    19    21   ar
     9    21    22    1
    10    21    23   ar
    11     2     4   am
    12     4     5    1
    13     5     6    1
    14     6     7    1
    15     7     8    1
    16     8     9   ar
    17     9    10   ar
    18    10    11   ar
    19    11    24    1
    20    24    25   ar
    21    25    26   ar
    22    26    27   ar
    23    27    28   ar
    24    28    29   ar
    25    11    12   ar
    26    12    13   ar
    27    13    14    1
    28    23    16   ar
    29    14     4    1
    30    13     8   ar
    31    29    24   ar
    32     3    15    1
@<TRIPOS>MOLECULE
*****
 29 32 0 0 0
SMALL
GASTEIGER

@<TRIPOS>ATOM
      1 O          63.6502   84.7812   13.5495 O.2     1  UNL1       -0.2522
      2 C          62.8502   85.0602   12.3117 C.2     1  UNL1        0.3080
      3 N          62.1593   83.9373   11.5963 N.am    1  UNL1       -0.2681
      4 N          62.7410   86.4621   11.7894 N.am    1  UNL1       -0.2559
      5 C          61.9181   86.6313   10.5467 C.3     1  UNL1        0.1425
      6 C          61.6201   87.8896    9.7865 C.3     1  UNL1        0.2268
      7 O          62.0714   89.2893   10.0811 O.3     1  UNL1       -0.4739
      8 C          62.9322   89.7766   11.2088 C.ar    1  UNL1        0.1362
      9 C          63.1451   91.2596   11.1345 C.ar    1  UNL1        0.0366
     10 C          63.9800   91.9504   12.1717 C.ar    1  UNL1        0.0031
     11 C          64.6021   91.1582   13.2832 C.ar    1  UNL1        0.0000
     12 C          64.3892   89.6752   13.3575 C.ar    1  UNL1        0.0004
     13 C          63.5543   88.9844   12.3203 C.ar    1  UNL1        0.0317
     14 C          63.4692   87.5093   12.5786 C.3     1  UNL1        0.1248
     15 H          61.6342   84.1204   10.7840 H       1  UNL1        0.1564
     16 C          62.2685   82.5354   12.1188 C.ar    1  UNL1        0.0525
     17 C          62.1123   82.2677   13.5863 C.ar    1  UNL1        0.0156
     18 C          62.2215   80.8658   14.1087 C.ar    1  UNL1        0.0135
     19 C          62.4868   79.7317   13.1634 C.ar    1  UNL1        0.0683
     20 CL         62.5960   78.3299   13.6859 Cl      1  UNL1       -0.0814
     21 C          62.6430   79.9996   11.6959 C.ar    1  UNL1        0.0694
     22 CL         62.9083   78.8654   10.7506 Cl      1  UNL1       -0.0813
     23 C          62.5338   81.4014   11.1735 C.ar    1  UNL1        0.0270
     24 C          65.4370   91.8489   14.3204 C.ar    1  UNL1        0.0031
     25 C          64.9418   91.9561   15.7322 C.ar    1  UNL1        0.0207
     26 C          65.7767   92.6469   16.7694 C.ar    1  UNL1        0.0989
     27 N          67.1069   93.2304   16.3947 N.ar    1  UNL1       -0.2423
     28 C          67.6020   93.1231   14.9829 C.ar    1  UNL1        0.0989
     29 C          66.7671   92.4324   13.9457 C.ar    1  UNL1        0.0207
@<TRIPOS>BOND
     1     1     2    2
     2     2     3   am
     3     3    16    1
     4    16    17   ar
     5    17    18   ar
     6    18    19   ar
     7    19    20    1
     8    19    21   ar
     9    21    22    1
    10    21    23   ar
    11     2     4   am
    12     4     5    1
    13     5     6    1
    14     6     7    1
    15     7     8    1
    16     8     9   ar
    17     9    10   ar
    18    10    11   ar
    19    11    24    1
    20    24    25   ar
    21    25    26   ar
    22    26    27   ar
    23    27    28   ar
    24    28    29   ar
    25    11    12   ar
    26    12    13   ar
    27    13    14    1
    28    23    16   ar
    29    14     4    1
    30    13     8   ar
    31    29    24   ar
    32     3    15    1
