@<TRIPOS>MOLECULE
*****
 37 41 0 0 0
SMALL
GASTEIGER

@<TRIPOS>ATOM
      1 N          63.0709   90.6730   12.6251 N.3     1  UNL1       -0.2679
      2 C          64.2710   91.5143   12.3063 C.3     1  UNL1        0.0978
      3 C          64.6043   91.8353   10.8795 C.3     1  UNL1        0.0224
      4 C          65.8045   92.6766   10.5606 C.3     1  UNL1        0.0065
      5 C          66.6714   93.1970   11.6686 C.3     1  UNL1        0.0277
      6 C          66.3381   92.8761   13.0954 C.ar    1  UNL1       -0.0073
      7 C          67.2050   93.3965   14.2034 C.ar    1  UNL1       -0.0015
      8 C          66.8718   93.0756   15.6303 C.ar    1  UNL1        0.0203
      9 C          65.6716   92.2342   15.9491 C.ar    1  UNL1        0.0985
     10 N          64.8047   91.7138   14.8412 N.ar    1  UNL1       -0.2471
     11 C          65.1379   92.0348   13.4142 C.ar    1  UNL1        0.0695
     12 C          63.1373   89.6594   13.7288 C.3     1  UNL1        0.0738
     13 C          64.1993   88.6001   13.7114 C.3     1  UNL1        0.0347
     14 C          64.2316   87.5528   14.7846 C.3     1  UNL1        0.0736
     15 N          62.3115   80.9534   14.6743 N.am    1  UNL1       -0.3132
     16 C          62.4603   81.9515   13.5645 C.2     1  UNL1        0.3009
     17 O          62.1663   81.5493   12.1497 O.2     1  UNL1       -0.2528
     18 N          62.9032   83.3518   13.8696 N.am    1  UNL1       -0.2616
     19 C          63.1972   83.7540   15.2844 C.3     1  UNL1        0.1123
     20 C          63.6400   85.1544   15.5894 C.3     1  UNL1        0.0940
     21 N          63.7888   86.1525   14.4796 N.3     1  UNL1       -0.2697
     22 C          63.4947   85.7502   13.0648 C.3     1  UNL1        0.0940
     23 C          63.0519   84.3499   12.7598 C.3     1  UNL1        0.1123
     24 H          62.0209   80.0343   14.4741 H       1  UNL1        0.1465
     25 H          62.5045   81.2174   15.6029 H       1  UNL1        0.1465
     26 C          61.8042   90.8453   11.8404 C.3     1  UNL1        0.0886
     27 C          61.4192   89.8302   10.8053 C.3     1  UNL1        0.0748
     28 C          62.2634   88.6067   10.6043 C.3     1  UNL1        0.0432
     29 C          61.8784   87.5915    9.5692 C.ar    1  UNL1       -0.0234
     30 C          62.7226   86.3681    9.3682 C.ar    1  UNL1       -0.0045
     31 C          62.3376   85.3530    8.3332 C.ar    1  UNL1       -0.0003
     32 C          61.1084   85.5614    7.4991 C.ar    1  UNL1       -0.0003
     33 C          60.2643   86.7849    7.7001 C.ar    1  UNL1       -0.0032
     34 C          60.6493   87.8000    8.7351 C.ar    1  UNL1       -0.0103
     35 C          59.8051   89.0235    8.9362 C.3     1  UNL1        0.0953
     36 N          60.1901   90.0386    9.9712 N.3     1  UNL1       -0.2934
     37 H          59.4046   90.1124   10.6177 H       1  UNL1        0.1236
@<TRIPOS>BOND
     1    15    16   am
     2    16    17    2
     3    16    18   am
     4    18    19    1
     5    19    20    1
     6    20    21    1
     7    21    14    1
     8    14    13    1
     9    13    12    1
    10    12     1    1
    11     1    26    1
    12    27    26    1
    13    27    28    1
    14    28    29    1
    15    29    30   ar
    16    30    31   ar
    17    31    32   ar
    18    32    33   ar
    19    33    34   ar
    20    34    35    1
    21    35    36    1
    22     2     1    1
    23     2     3    1
    24     3     4    1
    25     4     5    1
    26     5     6    1
    27     6     7   ar
    28     7     8   ar
    29     8     9   ar
    30     9    10   ar
    31    10    11   ar
    32    21    22    1
    33    22    23    1
    34    23    18    1
    35    36    27    1
    36    11     2    1
    37    34    29   ar
    38    11     6   ar
    39    15    24    1
    40    15    25    1
    41    36    37    1
@<TRIPOS>MOLECULE
*****
 37 41 0 0 0
SMALL
GASTEIGER

@<TRIPOS>ATOM
      1 N          63.1462   89.0533   13.2164 N.3     1  UNL1       -0.2679
      2 C          62.4076   89.0819   11.9112 C.3     1  UNL1        0.0978
      3 C          61.9637   90.3911   11.3291 C.3     1  UNL1        0.0224
      4 C          61.2251   90.4196   10.0239 C.3     1  UNL1        0.0065
      5 C          60.9304   89.1389    9.3007 C.3     1  UNL1        0.0277
      6 C          61.3743   87.8297    9.8829 C.ar    1  UNL1       -0.0073
      7 C          61.0795   86.5489    9.1597 C.ar    1  UNL1       -0.0015
      8 C          61.5234   85.2397    9.7418 C.ar    1  UNL1        0.0203
      9 C          62.2620   85.2112   11.0471 C.ar    1  UNL1        0.0985
     10 N          62.5568   86.4919   11.7702 N.ar    1  UNL1       -0.2471
     11 C          62.1129   87.8012   11.1881 C.ar    1  UNL1        0.0695
     12 C          64.1031   87.9368   13.5125 C.3     1  UNL1        0.0738
     13 C          64.2134   87.3932   14.9062 C.3     1  UNL1        0.0347
     14 C          64.8453   86.0532   15.1408 C.3     1  UNL1        0.0736
     15 N          60.6251   80.7183   14.1513 N.am    1  UNL1       -0.3132
     16 C          61.9513   81.0491   13.5334 C.2     1  UNL1        0.3009
     17 O          62.5540   80.1289   12.5136 O.2     1  UNL1       -0.2528
     18 N          62.6748   82.3002   13.9353 N.am    1  UNL1       -0.2616
     19 C          62.0721   83.2204   14.9550 C.3     1  UNL1        0.1123
     20 C          62.7956   84.4714   15.3569 C.3     1  UNL1        0.0940
     21 N          64.1218   84.8022   14.7390 N.3     1  UNL1       -0.2697
     22 C          64.7245   83.8820   13.7191 C.3     1  UNL1        0.0940
     23 C          64.0010   82.6310   13.3173 C.3     1  UNL1        0.1123
     24 H          60.1503   79.8972   13.8876 H       1  UNL1        0.1465
     25 H          60.2296   81.3223   14.8207 H       1  UNL1        0.1465
     26 C          62.9279   90.1413   14.2257 C.3     1  UNL1        0.0886
     27 C          64.0976   90.9115   14.7632 C.3     1  UNL1        0.0748
     28 C          65.3853   90.9527   13.9950 C.3     1  UNL1        0.0432
     29 C          66.5550   91.7228   14.5325 C.ar    1  UNL1       -0.0234
     30 C          67.8427   91.7640   13.7643 C.ar    1  UNL1       -0.0045
     31 C          69.0122   92.5341   14.3018 C.ar    1  UNL1       -0.0003
     32 C          68.8942   93.2630   15.6075 C.ar    1  UNL1       -0.0003
     33 C          67.6065   93.2218   16.3757 C.ar    1  UNL1       -0.0032
     34 C          66.4369   92.4517   15.8382 C.ar    1  UNL1       -0.0103
     35 C          65.1491   92.4105   16.6063 C.3     1  UNL1        0.0953
     36 N          63.9795   91.6404   16.0688 N.3     1  UNL1       -0.2934
     37 H          63.2116   92.3040   15.9672 H       1  UNL1        0.1236
@<TRIPOS>BOND
     1    15    16   am
     2    16    17    2
     3    16    18   am
     4    18    19    1
     5    19    20    1
     6    20    21    1
     7    21    14    1
     8    14    13    1
     9    13    12    1
    10    12     1    1
    11     1    26    1
    12    27    26    1
    13    27    28    1
    14    28    29    1
    15    29    30   ar
    16    30    31   ar
    17    31    32   ar
    18    32    33   ar
    19    33    34   ar
    20    34    35    1
    21    35    36    1
    22     2     1    1
    23     2     3    1
    24     3     4    1
    25     4     5    1
    26     5     6    1
    27     6     7   ar
    28     7     8   ar
    29     8     9   ar
    30     9    10   ar
    31    10    11   ar
    32    21    22    1
    33    22    23    1
    34    23    18    1
    35    36    27    1
    36    11     2    1
    37    34    29   ar
    38    11     6   ar
    39    15    24    1
    40    15    25    1
    41    36    37    1
@<TRIPOS>MOLECULE
*****
 37 41 0 0 0
SMALL
GASTEIGER

@<TRIPOS>ATOM
      1 N          63.7821   89.8963   13.6973 N.3     1  UNL1       -0.2679
      2 C          64.7098   91.0440   13.9655 C.3     1  UNL1        0.0978
      3 C          65.2433   91.2697   15.3492 C.3     1  UNL1        0.0224
      4 C          66.1710   92.4174   15.6174 C.3     1  UNL1        0.0065
      5 C          66.5654   93.3395   14.5020 C.3     1  UNL1        0.0277
      6 C          66.0320   93.1138   13.1183 C.ar    1  UNL1       -0.0073
      7 C          66.4264   94.0359   12.0028 C.ar    1  UNL1       -0.0015
      8 C          65.8930   93.8102   10.6192 C.ar    1  UNL1        0.0203
      9 C          64.9652   92.6625   10.3510 C.ar    1  UNL1        0.0985
     10 N          64.5708   91.7404   11.4664 N.ar    1  UNL1       -0.2471
     11 C          65.1042   91.9661   12.8501 C.ar    1  UNL1        0.0695
     12 C          64.3039   88.4901   13.7152 C.3     1  UNL1        0.0738
     13 C          64.1687   87.6556   14.9543 C.3     1  UNL1        0.0347
     14 C          64.8874   86.3430   15.0566 C.3     1  UNL1        0.0736
     15 N          60.8042   80.8811   14.1933 N.am    1  UNL1       -0.3132
     16 C          62.0890   81.2628   13.5200 C.2     1  UNL1        0.3009
     17 O          62.6743   80.3745   12.4625 O.2     1  UNL1       -0.2528
     18 N          62.7886   82.5329   13.9042 N.am    1  UNL1       -0.2616
     19 C          62.2034   83.4212   14.9617 C.3     1  UNL1        0.1123
     20 C          62.9030   84.6913   15.3458 C.3     1  UNL1        0.0940
     21 N          64.1878   85.0730   14.6725 N.3     1  UNL1       -0.2697
     22 C          64.7731   84.1846   13.6150 C.3     1  UNL1        0.0940
     23 C          64.0735   82.9146   13.2308 C.3     1  UNL1        0.1123
     24 H          60.3450   80.0476   13.9412 H       1  UNL1        0.1465
     25 H          60.4200   81.4642   14.8874 H       1  UNL1        0.1465
     26 C          62.3325   90.1547   13.4113 C.3     1  UNL1        0.0886
     27 C          61.7190   89.6560   12.1365 C.3     1  UNL1        0.0748
     28 C          62.1525   88.3408   11.5599 C.3     1  UNL1        0.0432
     29 C          61.5390   87.8421   10.2851 C.ar    1  UNL1       -0.0234
     30 C          61.9725   86.5270    9.7085 C.ar    1  UNL1       -0.0045
     31 C          61.3591   86.0283    8.4337 C.ar    1  UNL1       -0.0003
     32 C          60.3122   86.8448    7.7356 C.ar    1  UNL1       -0.0003
     33 C          59.8787   88.1599    8.3122 C.ar    1  UNL1       -0.0032
     34 C          60.4922   88.6586    9.5869 C.ar    1  UNL1       -0.0103
     35 C          60.0587   89.9738   10.1636 C.3     1  UNL1        0.0953
     36 N          60.6722   90.4724   11.4383 N.3     1  UNL1       -0.2934
     37 H          59.9083   90.6014   12.1019 H       1  UNL1        0.1236
@<TRIPOS>BOND
     1    15    16   am
     2    16    17    2
     3    16    18   am
     4    18    19    1
     5    19    20    1
     6    20    21    1
     7    21    14    1
     8    14    13    1
     9    13    12    1
    10    12     1    1
    11     1    26    1
    12    27    26    1
    13    27    28    1
    14    28    29    1
    15    29    30   ar
    16    30    31   ar
    17    31    32   ar
    18    32    33   ar
    19    33    34   ar
    20    34    35    1
    21    35    36    1
    22     2     1    1
    23     2     3    1
    24     3     4    1
    25     4     5    1
    26     5     6    1
    27     6     7   ar
    28     7     8   ar
    29     8     9   ar
    30     9    10   ar
    31    10    11   ar
    32    21    22    1
    33    22    23    1
    34    23    18    1
    35    36    27    1
    36    11     2    1
    37    34    29   ar
    38    11     6   ar
    39    15    24    1
    40    15    25    1
    41    36    37    1
@<TRIPOS>MOLECULE
*****
 37 41 0 0 0
SMALL
GASTEIGER

@<TRIPOS>ATOM
      1 N          63.3725   88.2276   13.0012 N.3     1  UNL1       -0.2679
      2 C          62.6362   87.4626   11.9417 C.3     1  UNL1        0.0978
      3 C          62.7813   85.9722   11.8551 C.3     1  UNL1        0.0224
      4 C          62.0450   85.2072   10.7956 C.3     1  UNL1        0.0065
      5 C          61.1635   85.9326    9.8227 C.3     1  UNL1        0.0277
      6 C          61.0183   87.4230    9.9092 C.ar    1  UNL1       -0.0073
      7 C          60.1367   88.1485    8.9363 C.ar    1  UNL1       -0.0015
      8 C          59.9915   89.6389    9.0228 C.ar    1  UNL1        0.0203
      9 C          60.7279   90.4039   10.0823 C.ar    1  UNL1        0.0985
     10 N          61.6094   89.6785   11.0553 N.ar    1  UNL1       -0.2471
     11 C          61.7546   88.1880   10.9687 C.ar    1  UNL1        0.0695
     12 C          64.3805   87.5304   13.8659 C.3     1  UNL1        0.0738
     13 C          64.0540   87.2190   15.2965 C.3     1  UNL1        0.0347
     14 C          64.3835   85.8705   15.8646 C.3     1  UNL1        0.0736
     15 N          62.7138   80.1421   12.4518 N.am    1  UNL1       -0.3132
     16 C          61.9530   80.9329   13.4745 C.2     1  UNL1        0.3009
     17 O          60.5847   80.4893   13.8996 O.2     1  UNL1       -0.2528
     18 N          62.5607   82.1673   14.0720 N.am    1  UNL1       -0.2616
     19 C          63.9290   82.6109   13.6469 C.3     1  UNL1        0.1123
     20 C          64.5367   83.8453   14.2444 C.3     1  UNL1        0.0940
     21 N          63.7759   84.6361   15.2671 N.3     1  UNL1       -0.2697
     22 C          62.4075   84.1925   15.6922 C.3     1  UNL1        0.0940
     23 C          61.7999   82.9581   15.0947 C.3     1  UNL1        0.1123
     24 H          62.3150   79.3319   12.0596 H       1  UNL1        0.1465
     25 H          63.6119   80.4332   12.1727 H       1  UNL1        0.1465
     26 C          63.1009   89.6899   13.1960 C.3     1  UNL1        0.0886
     27 C          64.0522   90.5294   13.9962 C.3     1  UNL1        0.0748
     28 C          65.4396   90.7837   13.4859 C.3     1  UNL1        0.0432
     29 C          66.3909   91.6232   14.2861 C.ar    1  UNL1       -0.0234
     30 C          67.7783   91.8775   13.7759 C.ar    1  UNL1       -0.0045
     31 C          68.7296   92.7170   14.5761 C.ar    1  UNL1       -0.0003
     32 C          68.2934   93.3021   15.8866 C.ar    1  UNL1       -0.0003
     33 C          66.9060   93.0478   16.3968 C.ar    1  UNL1       -0.0032
     34 C          65.9548   92.2084   15.5966 C.ar    1  UNL1       -0.0103
     35 C          64.5673   91.9540   16.1069 C.3     1  UNL1        0.0953
     36 N          63.6161   91.1146   15.3067 N.3     1  UNL1       -0.2934
     37 H          62.8013   91.6967   15.1126 H       1  UNL1        0.1236
@<TRIPOS>BOND
     1    15    16   am
     2    16    17    2
     3    16    18   am
     4    18    19    1
     5    19    20    1
     6    20    21    1
     7    21    14    1
     8    14    13    1
     9    13    12    1
    10    12     1    1
    11     1    26    1
    12    27    26    1
    13    27    28    1
    14    28    29    1
    15    29    30   ar
    16    30    31   ar
    17    31    32   ar
    18    32    33   ar
    19    33    34   ar
    20    34    35    1
    21    35    36    1
    22     2     1    1
    23     2     3    1
    24     3     4    1
    25     4     5    1
    26     5     6    1
    27     6     7   ar
    28     7     8   ar
    29     8     9   ar
    30     9    10   ar
    31    10    11   ar
    32    21    22    1
    33    22    23    1
    34    23    18    1
    35    36    27    1
    36    11     2    1
    37    34    29   ar
    38    11     6   ar
    39    15    24    1
    40    15    25    1
    41    36    37    1
@<TRIPOS>MOLECULE
*****
 37 41 0 0 0
SMALL
GASTEIGER

@<TRIPOS>ATOM
      1 N          63.5495   89.0008   14.4458 N.3     1  UNL1       -0.2679
      2 C          63.3609   87.9612   15.5105 C.3     1  UNL1        0.0978
      3 C          62.9892   88.3736   16.9039 C.3     1  UNL1        0.0224
      4 C          62.8006   87.3339   17.9686 C.3     1  UNL1        0.0065
      5 C          62.9837   85.8819   17.6399 C.3     1  UNL1        0.0277
      6 C          63.3553   85.4695   16.2464 C.ar    1  UNL1       -0.0073
      7 C          63.5384   84.0175   15.9176 C.ar    1  UNL1       -0.0015
      8 C          63.9100   83.6051   14.5241 C.ar    1  UNL1        0.0203
      9 C          64.0986   84.6447   13.4594 C.ar    1  UNL1        0.0985
     10 N          63.9156   86.0967   13.7882 N.ar    1  UNL1       -0.2471
     11 C          63.5439   86.5092   15.1817 C.ar    1  UNL1        0.0695
     12 C          63.3622   90.4525   14.7735 C.3     1  UNL1        0.0738
     13 C          64.4787   91.2285   15.4070 C.3     1  UNL1        0.0347
     14 C          65.7908   91.3722   14.6944 C.3     1  UNL1        0.0736
     15 N          66.0887   95.1260    8.9437 N.am    1  UNL1       -0.3132
     16 C          66.4190   95.4776   10.3641 C.2     1  UNL1        0.3009
     17 O          66.9062   96.8554   10.7019 O.2     1  UNL1       -0.2528
     18 N          66.2619   94.4512   11.4467 N.am    1  UNL1       -0.2616
     19 C          65.7746   93.0734   11.1089 C.3     1  UNL1        0.1123
     20 C          65.6176   92.0470   12.1915 C.3     1  UNL1        0.0940
     21 N          65.9478   92.3985   13.6119 N.3     1  UNL1       -0.2697
     22 C          66.4351   93.7764   13.9496 C.3     1  UNL1        0.0940
     23 C          66.5921   94.8027   12.8670 C.3     1  UNL1        0.1123
     24 H          66.1918   95.7997    8.2332 H       1  UNL1        0.1465
     25 H          65.7689   94.2217    8.7221 H       1  UNL1        0.1465
     26 C          63.9254   88.5887   13.0534 C.3     1  UNL1        0.0886
     27 C          62.9372   88.7375   11.9346 C.3     1  UNL1        0.0748
     28 C          62.4238   87.5222   11.2209 C.3     1  UNL1        0.0432
     29 C          61.4356   87.6710   10.1021 C.ar    1  UNL1       -0.0234
     30 C          60.9222   86.4557    9.3884 C.ar    1  UNL1       -0.0045
     31 C          59.9341   86.6045    8.2698 C.ar    1  UNL1       -0.0003
     32 C          59.4595   87.9686    7.8648 C.ar    1  UNL1       -0.0003
     33 C          59.9729   89.1839    8.5785 C.ar    1  UNL1       -0.0032
     34 C          60.9610   89.0351    9.6972 C.ar    1  UNL1       -0.0103
     35 C          61.4745   90.2504   10.4109 C.3     1  UNL1        0.0953
     36 N          62.4626   90.1016   11.5296 N.3     1  UNL1       -0.2934
     37 H          62.0377   90.5228   12.3557 H       1  UNL1        0.1236
@<TRIPOS>BOND
     1    15    16   am
     2    16    17    2
     3    16    18   am
     4    18    19    1
     5    19    20    1
     6    20    21    1
     7    21    14    1
     8    14    13    1
     9    13    12    1
    10    12     1    1
    11     1    26    1
    12    27    26    1
    13    27    28    1
    14    28    29    1
    15    29    30   ar
    16    30    31   ar
    17    31    32   ar
    18    32    33   ar
    19    33    34   ar
    20    34    35    1
    21    35    36    1
    22     2     1    1
    23     2     3    1
    24     3     4    1
    25     4     5    1
    26     5     6    1
    27     6     7   ar
    28     7     8   ar
    29     8     9   ar
    30     9    10   ar
    31    10    11   ar
    32    21    22    1
    33    22    23    1
    34    23    18    1
    35    36    27    1
    36    11     2    1
    37    34    29   ar
    38    11     6   ar
    39    15    24    1
    40    15    25    1
    41    36    37    1
@<TRIPOS>MOLECULE
*****
 37 41 0 0 0
SMALL
GASTEIGER

@<TRIPOS>ATOM
      1 N          62.7372   90.0568   11.4649 N.3     1  UNL1       -0.2679
      2 C          63.2975   89.7708   12.8267 C.3     1  UNL1        0.0978
      3 C          63.6316   90.9022   13.7530 C.3     1  UNL1        0.0224
      4 C          64.1919   90.6163   15.1147 C.3     1  UNL1        0.0065
      5 C          64.4181   89.1988   15.5501 C.3     1  UNL1        0.0277
      6 C          64.0840   88.0673   14.6238 C.ar    1  UNL1       -0.0073
      7 C          64.3101   86.6498   15.0592 C.ar    1  UNL1       -0.0015
      8 C          63.9760   85.5183   14.1329 C.ar    1  UNL1        0.0203
      9 C          63.4157   85.8043   12.7711 C.ar    1  UNL1        0.0985
     10 N          63.1895   87.2218   12.3357 N.ar    1  UNL1       -0.2471
     11 C          63.5237   88.3533   13.2621 C.ar    1  UNL1        0.0695
     12 C          63.5854   90.7393   10.4331 C.3     1  UNL1        0.0738
     13 C          63.8897   92.2026   10.5608 C.3     1  UNL1        0.0347
     14 C          65.3120   92.6780   10.5327 C.3     1  UNL1        0.0736
     15 N          69.1414   92.0751   16.2092 N.am    1  UNL1       -0.3132
     16 C          68.3871   93.2465   15.6533 C.2     1  UNL1        0.3009
     17 O          68.4015   94.5599   16.3776 O.2     1  UNL1       -0.2528
     18 N          67.6183   93.1043   14.3731 N.am    1  UNL1       -0.2616
     19 C          67.6039   91.7909   13.6488 C.3     1  UNL1        0.1123
     20 C          66.8351   91.6488   12.3686 C.3     1  UNL1        0.0940
     21 N          66.0808   92.8201   11.8128 N.3     1  UNL1       -0.2697
     22 C          66.0953   94.1336   12.5372 C.3     1  UNL1        0.0940
     23 C          66.8640   94.2757   13.8173 C.3     1  UNL1        0.1123
     24 H          69.6460   92.1684   17.0494 H       1  UNL1        0.1465
     25 H          69.1319   91.2131   15.7338 H       1  UNL1        0.1465
     26 C          61.3287   89.6603   11.1351 C.3     1  UNL1        0.0886
     27 C          61.0696   88.5943   10.1119 C.3     1  UNL1        0.0748
     28 C          62.1742   87.6678    9.6980 C.3     1  UNL1        0.0432
     29 C          61.9152   86.6019    8.6748 C.ar    1  UNL1       -0.0234
     30 C          63.0198   85.6753    8.2609 C.ar    1  UNL1       -0.0045
     31 C          62.7607   84.6095    7.2378 C.ar    1  UNL1       -0.0003
     32 C          61.3970   84.4701    6.6287 C.ar    1  UNL1       -0.0003
     33 C          60.2924   85.3966    7.0426 C.ar    1  UNL1       -0.0032
     34 C          60.5515   86.4625    8.0657 C.ar    1  UNL1       -0.0103
     35 C          59.4469   87.3891    8.4797 C.3     1  UNL1        0.0953
     36 N          59.7060   88.4550    9.5028 N.3     1  UNL1       -0.2934
     37 H          59.0558   88.2899   10.2712 H       1  UNL1        0.1236
@<TRIPOS>BOND
     1    15    16   am
     2    16    17    2
     3    16    18   am
     4    18    19    1
     5    19    20    1
     6    20    21    1
     7    21    14    1
     8    14    13    1
     9    13    12    1
    10    12     1    1
    11     1    26    1
    12    27    26    1
    13    27    28    1
    14    28    29    1
    15    29    30   ar
    16    30    31   ar
    17    31    32   ar
    18    32    33   ar
    19    33    34   ar
    20    34    35    1
    21    35    36    1
    22     2     1    1
    23     2     3    1
    24     3     4    1
    25     4     5    1
    26     5     6    1
    27     6     7   ar
    28     7     8   ar
    29     8     9   ar
    30     9    10   ar
    31    10    11   ar
    32    21    22    1
    33    22    23    1
    34    23    18    1
    35    36    27    1
    36    11     2    1
    37    34    29   ar
    38    11     6   ar
    39    15    24    1
    40    15    25    1
    41    36    37    1
@<TRIPOS>MOLECULE
*****
 37 41 0 0 0
SMALL
GASTEIGER

@<TRIPOS>ATOM
      1 N          62.6471   84.9091   13.0387 N.3     1  UNL1       -0.2679
      2 C          63.0371   83.7183   12.2141 C.3     1  UNL1        0.0978
      3 C          63.8363   83.9046   10.9585 C.3     1  UNL1        0.0224
      4 C          64.2263   82.7138   10.1340 C.3     1  UNL1        0.0065
      5 C          63.8170   81.3366   10.5650 C.3     1  UNL1        0.0277
      6 C          63.0178   81.1503   11.8206 C.ar    1  UNL1       -0.0073
      7 C          62.6086   79.7730   12.2517 C.ar    1  UNL1       -0.0015
      8 C          61.8094   79.5867   13.5072 C.ar    1  UNL1        0.0203
      9 C          61.4194   80.7775   14.3318 C.ar    1  UNL1        0.0985
     10 N          61.8286   82.1547   13.9008 N.ar    1  UNL1       -0.2471
     11 C          62.6279   82.3411   12.6451 C.ar    1  UNL1        0.0695
     12 C          61.8196   84.7259   14.2762 C.3     1  UNL1        0.0738
     13 C          62.4891   84.5058   15.6004 C.3     1  UNL1        0.0347
     14 C          63.7666   85.2225   15.9233 C.3     1  UNL1        0.0736
     15 N          64.7578   91.8920   14.5867 N.am    1  UNL1       -0.3132
     16 C          63.9888   91.2135   15.6815 C.2     1  UNL1        0.3009
     17 O          63.2755   92.0328   16.7158 O.2     1  UNL1       -0.2528
     18 N          63.9333   89.7157   15.7419 N.am    1  UNL1       -0.2616
     19 C          64.6467   88.8964   14.7076 C.3     1  UNL1        0.1123
     20 C          64.5911   87.3986   14.7681 C.3     1  UNL1        0.0940
     21 N          63.8222   86.7202   15.8628 N.3     1  UNL1       -0.2697
     22 C          63.1088   87.5396   16.8971 C.3     1  UNL1        0.0940
     23 C          63.1643   89.0373   16.8367 C.3     1  UNL1        0.1123
     24 H          64.7942   92.8750   14.5471 H       1  UNL1        0.1465
     25 H          65.2260   91.3542   13.9079 H       1  UNL1        0.1465
     26 C          63.0847   86.2831   12.6257 C.3     1  UNL1        0.0886
     27 C          62.3242   87.0261   11.5675 C.3     1  UNL1        0.0748
     28 C          61.5252   86.2700   10.5477 C.3     1  UNL1        0.0432
     29 C          60.7647   87.0130    9.4895 C.ar    1  UNL1       -0.0234
     30 C          59.9657   86.2569    8.4697 C.ar    1  UNL1       -0.0045
     31 C          59.2052   86.9999    7.4117 C.ar    1  UNL1       -0.0003
     32 C          59.2436   88.4989    7.3734 C.ar    1  UNL1       -0.0003
     33 C          60.0425   89.2549    8.3932 C.ar    1  UNL1       -0.0032
     34 C          60.8031   88.5120    9.4513 C.ar    1  UNL1       -0.0103
     35 C          61.6020   89.2680   10.4712 C.3     1  UNL1        0.0953
     36 N          62.3626   88.5251   11.5292 N.3     1  UNL1       -0.2934
     37 H          62.0105   88.8517   12.4291 H       1  UNL1        0.1236
@<TRIPOS>BOND
     1    15    16   am
     2    16    17    2
     3    16    18   am
     4    18    19    1
     5    19    20    1
     6    20    21    1
     7    21    14    1
     8    14    13    1
     9    13    12    1
    10    12     1    1
    11     1    26    1
    12    27    26    1
    13    27    28    1
    14    28    29    1
    15    29    30   ar
    16    30    31   ar
    17    31    32   ar
    18    32    33   ar
    19    33    34   ar
    20    34    35    1
    21    35    36    1
    22     2     1    1
    23     2     3    1
    24     3     4    1
    25     4     5    1
    26     5     6    1
    27     6     7   ar
    28     7     8   ar
    29     8     9   ar
    30     9    10   ar
    31    10    11   ar
    32    21    22    1
    33    22    23    1
    34    23    18    1
    35    36    27    1
    36    11     2    1
    37    34    29   ar
    38    11     6   ar
    39    15    24    1
    40    15    25    1
    41    36    37    1
@<TRIPOS>MOLECULE
*****
 37 41 0 0 0
SMALL
GASTEIGER

@<TRIPOS>ATOM
      1 N          62.8785   88.7574   12.8870 N.3     1  UNL1       -0.2679
      2 C          61.9818   88.8164   11.6860 C.3     1  UNL1        0.0978
      3 C          61.1448   90.0353   11.4341 C.3     1  UNL1        0.0224
      4 C          60.2481   90.0944   10.2331 C.3     1  UNL1        0.0065
      5 C          60.1885   88.9345    9.2839 C.3     1  UNL1        0.0277
      6 C          61.0256   87.7156    9.5357 C.ar    1  UNL1       -0.0073
      7 C          60.9660   86.5556    8.5865 C.ar    1  UNL1       -0.0015
      8 C          61.8031   85.3366    8.8383 C.ar    1  UNL1        0.0203
      9 C          62.6997   85.2776   10.0394 C.ar    1  UNL1        0.0985
     10 N          62.7593   86.4375   10.9886 N.ar    1  UNL1       -0.2471
     11 C          61.9222   87.6565   10.7368 C.ar    1  UNL1        0.0695
     12 C          63.6334   87.4992   13.1983 C.3     1  UNL1        0.0738
     13 C          64.4024   87.3837   14.4810 C.3     1  UNL1        0.0347
     14 C          64.9362   86.0519   14.9182 C.3     1  UNL1        0.0736
     15 N          62.5009   80.0959   12.5003 N.am    1  UNL1       -0.3132
     16 C          61.9579   81.0282   13.5424 C.2     1  UNL1        0.3009
     17 O          60.6703   80.7046   14.2405 O.2     1  UNL1       -0.2528
     18 N          62.7025   82.2841   13.8864 N.am    1  UNL1       -0.2616
     19 C          63.9901   82.6077   13.1882 C.3     1  UNL1        0.1123
     20 C          64.7347   83.8637   13.5322 C.3     1  UNL1        0.0940
     21 N          64.1917   84.7960   14.5743 N.3     1  UNL1       -0.2697
     22 C          62.9040   84.4723   15.2724 C.3     1  UNL1        0.0940
     23 C          62.1595   83.2164   14.9284 C.3     1  UNL1        0.1123
     24 H          62.0122   79.2716   12.2746 H       1  UNL1        0.1465
     25 H          63.3460   80.3083   12.0421 H       1  UNL1        0.1465
     26 C          63.0202   89.9565   13.7769 C.3     1  UNL1        0.0886
     27 C          63.9747   91.0541   13.4101 C.3     1  UNL1        0.0748
     28 C          64.1031   91.4898   11.9806 C.3     1  UNL1        0.0432
     29 C          65.0576   92.5873   11.6139 C.ar    1  UNL1       -0.0234
     30 C          65.1861   93.0230   10.1843 C.ar    1  UNL1       -0.0045
     31 C          66.1405   94.1205    9.8177 C.ar    1  UNL1       -0.0003
     32 C          66.9666   94.7822   10.8805 C.ar    1  UNL1       -0.0003
     33 C          66.8382   94.3465   12.3101 C.ar    1  UNL1       -0.0032
     34 C          65.8837   93.2490   12.6767 C.ar    1  UNL1       -0.0103
     35 C          65.7553   92.8133   14.1064 C.3     1  UNL1        0.0953
     36 N          64.8008   91.7158   14.4730 N.3     1  UNL1       -0.2934
     37 H          64.1481   92.1078   15.1518 H       1  UNL1        0.1236
@<TRIPOS>BOND
     1    15    16   am
     2    16    17    2
     3    16    18   am
     4    18    19    1
     5    19    20    1
     6    20    21    1
     7    21    14    1
     8    14    13    1
     9    13    12    1
    10    12     1    1
    11     1    26    1
    12    27    26    1
    13    27    28    1
    14    28    29    1
    15    29    30   ar
    16    30    31   ar
    17    31    32   ar
    18    32    33   ar
    19    33    34   ar
    20    34    35    1
    21    35    36    1
    22     2     1    1
    23     2     3    1
    24     3     4    1
    25     4     5    1
    26     5     6    1
    27     6     7   ar
    28     7     8   ar
    29     8     9   ar
    30     9    10   ar
    31    10    11   ar
    32    21    22    1
    33    22    23    1
    34    23    18    1
    35    36    27    1
    36    11     2    1
    37    34    29   ar
    38    11     6   ar
    39    15    24    1
    40    15    25    1
    41    36    37    1
@<TRIPOS>MOLECULE
*****
 37 41 0 0 0
SMALL
GASTEIGER

@<TRIPOS>ATOM
      1 N          63.4476   85.7338   13.6962 N.3     1  UNL1       -0.2679
      2 C          62.9270   84.3271   13.6856 C.3     1  UNL1        0.0978
      3 C          62.0875   83.8294   14.8246 C.3     1  UNL1        0.0224
      4 C          61.5669   82.4227   14.8140 C.3     1  UNL1        0.0065
      5 C          61.8858   81.5136   13.6642 C.3     1  UNL1        0.0277
      6 C          62.7253   82.0113   12.5252 C.ar    1  UNL1       -0.0073
      7 C          63.0442   81.1022   11.3754 C.ar    1  UNL1       -0.0015
      8 C          63.8838   81.5999   10.2363 C.ar    1  UNL1        0.0203
      9 C          64.4044   83.0066   10.2470 C.ar    1  UNL1        0.0985
     10 N          64.0855   83.9157   11.3967 N.ar    1  UNL1       -0.2471
     11 C          63.2459   83.4180   12.5359 C.ar    1  UNL1        0.0695
     12 C          63.7571   86.4091   14.9993 C.3     1  UNL1        0.0738
     13 C          64.5246   87.6978   15.0125 C.3     1  UNL1        0.0347
     14 C          63.7928   89.0069   14.9899 C.3     1  UNL1        0.0736
     15 N          65.2006   93.7202   10.1885 N.am    1  UNL1       -0.3132
     16 C          65.7883   93.5004   11.5509 C.2     1  UNL1        0.3009
     17 O          66.8749   94.4040   12.0536 O.2     1  UNL1       -0.2528
     18 N          65.2894   92.3770   12.4107 N.am    1  UNL1       -0.2616
     19 C          64.2028   91.4734   11.9080 C.3     1  UNL1        0.1123
     20 C          63.7039   90.3500   12.7677 C.3     1  UNL1        0.0940
     21 N          64.2916   90.1303   14.1302 N.3     1  UNL1       -0.2697
     22 C          65.3783   91.0340   14.6329 C.3     1  UNL1        0.0940
     23 C          65.8772   92.1573   13.7731 C.3     1  UNL1        0.1123
     24 H          65.5281   94.4575    9.6242 H       1  UNL1        0.1465
     25 H          64.4874   93.1271    9.8585 H       1  UNL1        0.1465
     26 C          63.6588   86.4651   12.4038 C.3     1  UNL1        0.0886
     27 C          62.4888   86.7757   11.5179 C.3     1  UNL1        0.0748
     28 C          62.3387   86.0745   10.2004 C.3     1  UNL1        0.0432
     29 C          61.1687   86.3850    9.3145 C.ar    1  UNL1       -0.0234
     30 C          61.0186   85.6838    7.9970 C.ar    1  UNL1       -0.0045
     31 C          59.8487   85.9943    7.1112 C.ar    1  UNL1       -0.0003
     32 C          58.8288   87.0060    7.5428 C.ar    1  UNL1       -0.0003
     33 C          58.9789   87.7072    8.8603 C.ar    1  UNL1       -0.0032
     34 C          60.1488   87.3967    9.7461 C.ar    1  UNL1       -0.0103
     35 C          60.2990   88.0979   11.0637 C.3     1  UNL1        0.0953
     36 N          61.4689   87.7874   11.9495 N.3     1  UNL1       -0.2934
     37 H          61.0875   87.4607   12.8373 H       1  UNL1        0.1236
@<TRIPOS>BOND
     1    15    16   am
     2    16    17    2
     3    16    18   am
     4    18    19    1
     5    19    20    1
     6    20    21    1
     7    21    14    1
     8    14    13    1
     9    13    12    1
    10    12     1    1
    11     1    26    1
    12    27    26    1
    13    27    28    1
    14    28    29    1
    15    29    30   ar
    16    30    31   ar
    17    31    32   ar
    18    32    33   ar
    19    33    34   ar
    20    34    35    1
    21    35    36    1
    22     2     1    1
    23     2     3    1
    24     3     4    1
    25     4     5    1
    26     5     6    1
    27     6     7   ar
    28     7     8   ar
    29     8     9   ar
    30     9    10   ar
    31    10    11   ar
    32    21    22    1
    33    22    23    1
    34    23    18    1
    35    36    27    1
    36    11     2    1
    37    34    29   ar
    38    11     6   ar
    39    15    24    1
    40    15    25    1
    41    36    37    1
