@<TRIPOS>MOLECULE
*****
 34 38 0 0 0
SMALL
GASTEIGER

@<TRIPOS>ATOM
      1 N          64.9554   92.2690   12.1870 N.3     1  UNL1       -0.2688
      2 C          65.9821   92.7955   13.1456 C.3     1  UNL1        0.0756
      3 C          65.9397   92.3878   14.5885 C.3     1  UNL1        0.0590
      4 C          64.8707   91.4536   15.0729 C.3     1  UNL1        0.2042
      5 F          65.6160   91.6834   16.3541 F       1  UNL1       -0.2306
      6 C          63.8441   90.9272   14.1143 C.3     1  UNL1        0.0590
      7 C          63.8864   91.3349   12.6714 C.3     1  UNL1        0.0756
      8 C          64.0606   90.5993   16.0022 C.2     1  UNL1        0.2553
      9 O          63.4579   91.1986   17.2382 O.2     1  UNL1       -0.2720
     10 N          63.8531   89.1457   15.6956 N.am    1  UNL1       -0.2773
     11 C          63.0430   88.2913   16.6250 C.3     1  UNL1        0.0949
     12 C          62.8355   86.8377   16.3184 C.3     1  UNL1        0.0375
     13 C          63.4382   86.2385   15.0825 C.3     1  UNL1        0.0615
     14 C          64.2484   87.0928   14.1531 C.3     1  UNL1        0.0375
     15 C          64.4558   88.5464   14.4597 C.3     1  UNL1        0.0949
     16 N          63.2308   84.7849   14.7759 N.3     1  UNL1       -0.2664
     17 C          61.9233   84.0513   14.8246 C.3     1  UNL1        0.0991
     18 C          62.1788   82.6227   14.4456 C.ar    1  UNL1       -0.0088
     19 C          61.2664   81.4386   14.3215 C.ar    1  UNL1       -0.0032
     20 C          61.8195   80.1050   13.9145 C.ar    1  UNL1       -0.0003
     21 C          63.2850   79.9556   13.6316 C.ar    1  UNL1       -0.0003
     22 C          64.1974   81.1397   13.7557 C.ar    1  UNL1       -0.0032
     23 C          63.6443   82.4732   14.1626 C.ar    1  UNL1       -0.0088
     24 C          64.2944   83.8095   14.3668 C.3     1  UNL1        0.0991
     25 C          64.9977   92.6767   10.7441 C.3     1  UNL1        0.0993
     26 N          67.7994   96.5957    8.7968 N.pl3   1  UNL1       -0.3426
     27 C          67.6754   95.1489    9.1731 C.ar    1  UNL1        0.1251
     28 C          66.3986   94.6362    9.7704 C.ar    1  UNL1        0.0310
     29 C          66.2746   93.1894   10.1468 C.ar    1  UNL1       -0.0018
     30 C          67.4274   92.2555    9.9257 C.ar    1  UNL1        0.0179
     31 C          68.7042   92.7683    9.3284 C.ar    1  UNL1        0.1000
     32 N          68.8282   94.2150    8.9520 N.ar    1  UNL1       -0.2296
     33 H          67.0428   97.2086    8.9418 H       1  UNL1        0.1437
     34 H          68.6374   96.9322    8.4047 H       1  UNL1        0.1437
@<TRIPOS>BOND
     1    26    27    1
     2    27    28   ar
     3    28    29   ar
     4    29    25    1
     5    25     1    1
     6     1     2    1
     7     2     3    1
     8     3     4    1
     9     4     5    1
    10     4     8    1
    11     8     9    2
    12     8    10   am
    13    10    11    1
    14    11    12    1
    15    12    13    1
    16    13    16    1
    17    16    17    1
    18    17    18    1
    19    18    19   ar
    20    19    20   ar
    21    20    21   ar
    22    21    22   ar
    23    22    23   ar
    24    23    24    1
    25    13    14    1
    26    14    15    1
    27     4     6    1
    28     6     7    1
    29    29    30   ar
    30    30    31   ar
    31    31    32   ar
    32    32    27   ar
    33     7     1    1
    34    15    10    1
    35    24    16    1
    36    23    18   ar
    37    26    33    1
    38    26    34    1
@<TRIPOS>MOLECULE
*****
 34 38 0 0 0
SMALL
GASTEIGER

@<TRIPOS>ATOM
      1 N          65.3963   92.5202   12.4141 N.3     1  UNL1       -0.2688
      2 C          65.0176   92.0539   13.7886 C.3     1  UNL1        0.0756
      3 C          63.9038   91.0647   13.9646 C.3     1  UNL1        0.0590
      4 C          63.1686   90.5419   12.7663 C.3     1  UNL1        0.2042
      5 F          62.4478   89.8052   13.8561 F       1  UNL1       -0.2306
      6 C          63.5473   91.0082   11.3919 C.3     1  UNL1        0.0590
      7 C          64.6610   91.9973   11.2157 C.3     1  UNL1        0.0756
      8 C          62.1831   89.7631   11.9464 C.2     1  UNL1        0.2553
      9 O          61.1132   90.4811   11.1785 O.2     1  UNL1       -0.2720
     10 N          62.2675   88.2664   11.8944 N.am    1  UNL1       -0.2773
     11 C          61.2819   87.4877   11.0746 C.3     1  UNL1        0.0949
     12 C          61.3663   85.9910   11.0226 C.3     1  UNL1        0.0375
     13 C          62.4362   85.2730   11.7905 C.3     1  UNL1        0.0615
     14 C          63.4217   86.0517   12.6104 C.3     1  UNL1        0.0375
     15 C          63.3374   87.5484   12.6623 C.3     1  UNL1        0.0949
     16 N          62.5206   83.7763   11.7385 N.3     1  UNL1       -0.2664
     17 C          62.2898   82.8397   12.8873 C.3     1  UNL1        0.0991
     18 C          62.4771   81.4379   12.3874 C.ar    1  UNL1       -0.0088
     19 C          62.3769   80.1067   13.0712 C.ar    1  UNL1       -0.0032
     20 C          62.6232   78.8456   12.2973 C.ar    1  UNL1       -0.0003
     21 C          62.9698   78.9158   10.8396 C.ar    1  UNL1       -0.0003
     22 C          63.0700   80.2470   10.1558 C.ar    1  UNL1       -0.0032
     23 C          62.8236   81.5081   10.9296 C.ar    1  UNL1       -0.0088
     24 C          62.8505   82.9532   10.5286 C.3     1  UNL1        0.0991
     25 C          66.5100   93.5093   12.2380 C.3     1  UNL1        0.0993
     26 N          67.5514   96.6609    8.2400 N.pl3   1  UNL1       -0.3426
     27 C          67.6289   95.3071    8.8815 C.ar    1  UNL1        0.1251
     28 C          67.0307   95.0851   10.2390 C.ar    1  UNL1        0.0310
     29 C          67.1082   93.7314   10.8804 C.ar    1  UNL1       -0.0018
     30 C          67.7840   92.5998   10.1643 C.ar    1  UNL1        0.0179
     31 C          68.3822   92.8218    8.8068 C.ar    1  UNL1        0.1000
     32 N          68.3047   94.1755    8.1654 N.ar    1  UNL1       -0.2296
     33 H          67.1079   97.4036    8.7100 H       1  UNL1        0.1437
     34 H          67.9441   96.8066    7.3491 H       1  UNL1        0.1437
@<TRIPOS>BOND
     1    26    27    1
     2    27    28   ar
     3    28    29   ar
     4    29    25    1
     5    25     1    1
     6     1     2    1
     7     2     3    1
     8     3     4    1
     9     4     5    1
    10     4     8    1
    11     8     9    2
    12     8    10   am
    13    10    11    1
    14    11    12    1
    15    12    13    1
    16    13    16    1
    17    16    17    1
    18    17    18    1
    19    18    19   ar
    20    19    20   ar
    21    20    21   ar
    22    21    22   ar
    23    22    23   ar
    24    23    24    1
    25    13    14    1
    26    14    15    1
    27     4     6    1
    28     6     7    1
    29    29    30   ar
    30    30    31   ar
    31    31    32   ar
    32    32    27   ar
    33     7     1    1
    34    15    10    1
    35    24    16    1
    36    23    18   ar
    37    26    33    1
    38    26    34    1
@<TRIPOS>MOLECULE
*****
 34 38 0 0 0
SMALL
GASTEIGER

@<TRIPOS>ATOM
      1 N          65.3894   92.7062   12.7013 N.3     1  UNL1       -0.2688
      2 C          64.1377   92.3243   11.9682 C.3     1  UNL1        0.0756
      3 C          63.3830   91.0902   12.3651 C.3     1  UNL1        0.0590
      4 C          63.8800   90.2380   13.4949 C.3     1  UNL1        0.2042
      5 F          62.6529   89.4672   13.1075 F       1  UNL1       -0.2306
      6 C          65.1317   90.6199   14.2280 C.3     1  UNL1        0.0590
      7 C          65.8864   91.8539   13.8312 C.3     1  UNL1        0.0756
      8 C          63.9508   89.1180   14.4903 C.2     1  UNL1        0.2553
      9 O          64.2071   89.4163   15.9378 O.2     1  UNL1       -0.2720
     10 N          63.7654   87.6999   14.0381 N.am    1  UNL1       -0.2773
     11 C          63.8362   86.5800   15.0334 C.3     1  UNL1        0.0949
     12 C          63.6507   85.1618   14.5812 C.3     1  UNL1        0.0375
     13 C          63.3945   84.8636   13.1337 C.3     1  UNL1        0.0615
     14 C          63.3237   85.9835   12.1384 C.3     1  UNL1        0.0375
     15 C          63.5091   87.4017   12.5906 C.3     1  UNL1        0.0949
     16 N          63.2090   83.4455   12.6815 N.3     1  UNL1       -0.2664
     17 C          62.7935   82.2917   13.5454 C.3     1  UNL1        0.0991
     18 C          62.7342   81.0653   12.6838 C.ar    1  UNL1       -0.0088
     19 C          62.3842   79.6393   12.9904 C.ar    1  UNL1       -0.0032
     20 C          62.4131   78.6090   11.9007 C.ar    1  UNL1       -0.0003
     21 C          62.7919   79.0048   10.5043 C.ar    1  UNL1       -0.0003
     22 C          63.1419   80.4307   10.1977 C.ar    1  UNL1       -0.0032
     23 C          63.1131   81.4610   11.2875 C.ar    1  UNL1       -0.0088
     24 C          63.4065   82.9320   11.2860 C.3     1  UNL1        0.0991
     25 C          66.1441   93.9402   12.3045 C.3     1  UNL1        0.0993
     26 N          67.7121   96.6945    8.1868 N.pl3   1  UNL1       -0.3426
     27 C          67.6068   95.3844    8.9097 C.ar    1  UNL1        0.1251
     28 C          66.9281   95.3174   10.2457 C.ar    1  UNL1        0.0310
     29 C          66.8228   94.0072   10.9685 C.ar    1  UNL1       -0.0018
     30 C          67.3961   92.7642   10.3552 C.ar    1  UNL1        0.0179
     31 C          68.0748   92.8312    9.0192 C.ar    1  UNL1        0.1000
     32 N          68.1801   94.1413    8.2964 N.ar    1  UNL1       -0.2296
     33 H          67.3358   97.5104    8.5893 H       1  UNL1        0.1437
     34 H          68.1575   96.7385    7.3100 H       1  UNL1        0.1437
@<TRIPOS>BOND
     1    26    27    1
     2    27    28   ar
     3    28    29   ar
     4    29    25    1
     5    25     1    1
     6     1     2    1
     7     2     3    1
     8     3     4    1
     9     4     5    1
    10     4     8    1
    11     8     9    2
    12     8    10   am
    13    10    11    1
    14    11    12    1
    15    12    13    1
    16    13    16    1
    17    16    17    1
    18    17    18    1
    19    18    19   ar
    20    19    20   ar
    21    20    21   ar
    22    21    22   ar
    23    22    23   ar
    24    23    24    1
    25    13    14    1
    26    14    15    1
    27     4     6    1
    28     6     7    1
    29    29    30   ar
    30    30    31   ar
    31    31    32   ar
    32    32    27   ar
    33     7     1    1
    34    15    10    1
    35    24    16    1
    36    23    18   ar
    37    26    33    1
    38    26    34    1
@<TRIPOS>MOLECULE
*****
 34 38 0 0 0
SMALL
GASTEIGER

@<TRIPOS>ATOM
      1 N          63.9774   83.9149   15.0832 N.3     1  UNL1       -0.2688
      2 C          62.5356   83.8183   15.4855 C.3     1  UNL1        0.0756
      3 C          61.8800   84.9589   16.2060 C.3     1  UNL1        0.0590
      4 C          62.6661   86.1961   16.5244 C.3     1  UNL1        0.2042
      5 F          61.3370   86.5747   17.1075 F       1  UNL1       -0.2306
      6 C          64.1079   86.2926   16.1221 C.3     1  UNL1        0.0590
      7 C          64.7636   85.1521   15.4016 C.3     1  UNL1        0.0756
      8 C          62.9906   87.5648   17.0452 C.2     1  UNL1        0.2553
      9 O          62.8279   87.8698   18.5048 O.2     1  UNL1       -0.2720
     10 N          63.4779   88.6284   16.1065 N.am    1  UNL1       -0.2773
     11 C          63.8025   89.9971   16.6274 C.3     1  UNL1        0.0949
     12 C          64.2898   91.0607   15.6887 C.3     1  UNL1        0.0375
     13 C          64.4525   90.7557   14.2291 C.3     1  UNL1        0.0615
     14 C          64.1280   89.3870   13.7082 C.3     1  UNL1        0.0375
     15 C          63.6407   88.3234   14.6469 C.3     1  UNL1        0.0949
     16 N          64.9398   91.8194   13.2904 N.3     1  UNL1       -0.2664
     17 C          64.8752   91.7705   11.7926 C.3     1  UNL1        0.0991
     18 C          65.4727   93.0396   11.2611 C.ar    1  UNL1       -0.0088
     19 C          65.6778   93.5440    9.8635 C.ar    1  UNL1       -0.0032
     20 C          66.3167   94.8818    9.6352 C.ar    1  UNL1       -0.0003
     21 C          66.7506   95.7150   10.8046 C.ar    1  UNL1       -0.0003
     22 C          66.5455   95.2106   12.2022 C.ar    1  UNL1       -0.0032
     23 C          65.9066   93.8728   12.4305 C.ar    1  UNL1       -0.0088
     24 C          65.5772   93.1187   13.6846 C.3     1  UNL1        0.0991
     25 C          64.6331   82.7744   14.3627 C.3     1  UNL1        0.0993
     26 N          63.9664   83.7687    9.3063 N.pl3   1  UNL1       -0.3426
     27 C          63.8019   82.8529   10.4829 C.ar    1  UNL1        0.1251
     28 C          64.2997   83.2716   11.8345 C.ar    1  UNL1        0.0310
     29 C          64.1352   82.3558   13.0111 C.ar    1  UNL1       -0.0018
     30 C          63.4729   81.0214   12.8359 C.ar    1  UNL1        0.0179
     31 C          62.9751   80.6027   11.4843 C.ar    1  UNL1        0.1000
     32 N          63.1395   81.5185   10.3077 N.ar    1  UNL1       -0.2296
     33 H          64.4011   84.6445    9.4212 H       1  UNL1        0.1437
     34 H          63.6396   83.4939    8.4192 H       1  UNL1        0.1437
@<TRIPOS>BOND
     1    26    27    1
     2    27    28   ar
     3    28    29   ar
     4    29    25    1
     5    25     1    1
     6     1     2    1
     7     2     3    1
     8     3     4    1
     9     4     5    1
    10     4     8    1
    11     8     9    2
    12     8    10   am
    13    10    11    1
    14    11    12    1
    15    12    13    1
    16    13    16    1
    17    16    17    1
    18    17    18    1
    19    18    19   ar
    20    19    20   ar
    21    20    21   ar
    22    21    22   ar
    23    22    23   ar
    24    23    24    1
    25    13    14    1
    26    14    15    1
    27     4     6    1
    28     6     7    1
    29    29    30   ar
    30    30    31   ar
    31    31    32   ar
    32    32    27   ar
    33     7     1    1
    34    15    10    1
    35    24    16    1
    36    23    18   ar
    37    26    33    1
    38    26    34    1
