@<TRIPOS>MOLECULE
*****
 41 44 0 0 0
SMALL
GASTEIGER

@<TRIPOS>ATOM
      1 C          66.6218   92.4450   13.4760 C.2     1  UNL1        0.2253
      2 O          67.6322   92.6195   14.5708 O.2     1  UNL1       -0.2749
      3 N          65.4521   91.5271   13.6743 N.am    1  UNL1       -0.2787
      4 C          65.1622   90.7218   14.9061 C.3     1  UNL1        0.1028
      5 C          63.8978   89.9503   14.6686 C.3     1  UNL1        0.1021
      6 C          63.4064   90.2788   13.2899 C.3     1  UNL1        0.0524
      7 C          64.3669   91.2533   12.6754 C.3     1  UNL1        0.0982
      8 C          66.8381   96.8555    8.2081 C.3     1  UNL1        0.0948
      9 C          67.2587   95.4189    8.3040 C.2     1  UNL1        0.2261
     10 O          67.8386   94.7258    7.1068 O.2     1  UNL1       -0.2749
     11 N          67.0995   94.6754    9.5970 N.am    1  UNL1       -0.2795
     12 C          66.5196   95.3686   10.7942 C.3     1  UNL1        0.0939
     13 C          66.3604   94.6251   12.0872 C.3     1  UNL1        0.0306
     14 C          66.7810   93.1885   12.1830 C.3     1  UNL1        0.0801
     15 C          67.3609   92.4954   10.9858 C.3     1  UNL1        0.0306
     16 C          67.5201   93.2388    9.6928 C.3     1  UNL1        0.0939
     17 C          62.1713   89.7294   12.6400 C.ar    1  UNL1       -0.0203
     18 C          62.2367   89.1879   11.2427 C.ar    1  UNL1       -0.0042
     19 C          61.0015   88.6384   10.5927 C.ar    1  UNL1       -0.0003
     20 C          59.7010   88.6304   11.3400 C.ar    1  UNL1       -0.0000
     21 C          59.6355   89.1719   12.7374 C.ar    1  UNL1       -0.0003
     22 C          60.8707   89.7214   13.3873 C.ar    1  UNL1       -0.0042
     23 C          63.2404   89.0146   15.6393 C.2     1  UNL1        0.2275
     24 O          62.3480   89.5565   16.7162 O.2     1  UNL1       -0.2748
     25 N          63.4754   87.5369   15.5330 N.am    1  UNL1       -0.2736
     26 C          62.8180   86.6012   16.5036 C.3     1  UNL1        0.1152
     27 C          64.3678   86.9950   14.4560 C.3     1  UNL1        0.1202
     28 C          63.8921   85.8727   13.5819 C.ar    1  UNL1       -0.0024
     29 C          64.0292   84.4522   14.0440 C.ar    1  UNL1        0.0012
     30 C          63.5534   83.3300   13.1698 C.ar    1  UNL1        0.0711
     31 C          62.9405   83.6282   11.8336 C.ar    1  UNL1        0.0077
     32 C          62.8034   85.0485   11.3715 C.ar    1  UNL1        0.0711
     33 C          63.2792   86.1708   12.2457 C.ar    1  UNL1        0.0012
     34 C          63.6905   81.9095   13.6319 C.3     1  UNL1        0.4186
     35 F          63.8276   80.4891   14.0940 F       1  UNL1       -0.1659
     36 F          64.6802   81.6484   12.5355 F       1  UNL1       -0.1659
     37 F          62.7007   82.1707   14.7283 F       1  UNL1       -0.1659
     38 C          62.1905   85.3468   10.0353 C.3     1  UNL1        0.4186
     39 F          61.5777   85.6450    8.6990 F       1  UNL1       -0.1659
     40 F          63.4869   85.0021    9.3639 F       1  UNL1       -0.1659
     41 F          60.8942   85.6914   10.7066 F       1  UNL1       -0.1659
@<TRIPOS>BOND
     1     8     9    1
     2     9    10    2
     3     9    11   am
     4    11    12    1
     5    12    13    1
     6    13    14    1
     7    14     1    1
     8     1     2    2
     9     1     3   am
    10     3     4    1
    11     4     5    1
    12     5    23    1
    13    23    24    2
    14    23    25   am
    15    25    26    1
    16    25    27    1
    17    27    28    1
    18    28    29   ar
    19    29    30   ar
    20    30    34    1
    21    34    35    1
    22    34    36    1
    23    34    37    1
    24    30    31   ar
    25    31    32   ar
    26    32    38    1
    27    38    39    1
    28    38    40    1
    29    38    41    1
    30    32    33   ar
    31     5     6    1
    32     6    17    1
    33    17    18   ar
    34    18    19   ar
    35    19    20   ar
    36    20    21   ar
    37    21    22   ar
    38     6     7    1
    39    14    15    1
    40    15    16    1
    41    16    11    1
    42     7     3    1
    43    33    28   ar
    44    22    17   ar
@<TRIPOS>MOLECULE
*****
 41 44 0 0 0
SMALL
GASTEIGER

@<TRIPOS>ATOM
      1 C          66.6846   92.3811   13.4479 C.2     1  UNL1        0.2253
      2 O          67.7273   92.5226   14.5168 O.2     1  UNL1       -0.2749
      3 N          65.5059   91.4791   13.6647 N.am    1  UNL1       -0.2787
      4 C          65.2367   90.6597   14.8919 C.3     1  UNL1        0.1028
      5 C          63.9538   89.9122   14.6780 C.3     1  UNL1        0.1021
      6 C          63.4302   90.2697   13.3185 C.3     1  UNL1        0.0524
      7 C          64.3895   91.2380   12.6923 C.3     1  UNL1        0.0982
      8 C          66.7846   96.8542    8.2294 C.3     1  UNL1        0.0948
      9 C          67.2282   95.4233    8.3049 C.2     1  UNL1        0.2261
     10 O          67.8078   94.7530    7.0947 O.2     1  UNL1       -0.2749
     11 N          67.0923   94.6628    9.5907 N.am    1  UNL1       -0.2795
     12 C          66.5128   95.3331   10.8009 C.3     1  UNL1        0.0939
     13 C          66.3769   94.5726   12.0866 C.3     1  UNL1        0.0306
     14 C          66.8205   93.1417   12.1621 C.3     1  UNL1        0.0801
     15 C          67.4000   92.4713   10.9519 C.3     1  UNL1        0.0306
     16 C          67.5359   93.2319    9.6661 C.3     1  UNL1        0.0939
     17 C          62.1690   89.7500   12.6949 C.ar    1  UNL1       -0.0203
     18 C          60.8954   89.7259   13.4869 C.ar    1  UNL1       -0.0042
     19 C          59.6340   89.2062   12.8632 C.ar    1  UNL1       -0.0003
     20 C          59.6463   88.7107   11.4475 C.ar    1  UNL1       -0.0000
     21 C          60.9200   88.7348   10.6554 C.ar    1  UNL1       -0.0003
     22 C          62.1813   89.2545   11.2792 C.ar    1  UNL1       -0.0042
     23 C          63.3080   88.9724   15.6525 C.2     1  UNL1        0.2275
     24 O          62.4314   89.5100   16.7445 O.2     1  UNL1       -0.2748
     25 N          63.5388   87.4950   15.5349 N.am    1  UNL1       -0.2736
     26 C          62.8930   86.5551   16.5094 C.3     1  UNL1        0.1152
     27 C          64.4154   86.9573   14.4429 C.3     1  UNL1        0.1202
     28 C          63.9200   85.8507   13.5597 C.ar    1  UNL1       -0.0024
     29 C          63.2745   86.1727   12.2446 C.ar    1  UNL1        0.0012
     30 C          62.7791   85.0660   11.3615 C.ar    1  UNL1        0.0711
     31 C          62.9291   83.6374   11.7935 C.ar    1  UNL1        0.0077
     32 C          63.5746   83.3155   13.1086 C.ar    1  UNL1        0.0711
     33 C          64.0700   84.4222   13.9918 C.ar    1  UNL1        0.0012
     34 C          62.1335   85.3879   10.0463 C.3     1  UNL1        0.4186
     35 F          61.4880   85.7099    8.7311 F       1  UNL1       -0.1659
     36 F          63.4149   85.0625    9.3377 F       1  UNL1       -0.1659
     37 F          60.8521   85.7134   10.7549 F       1  UNL1       -0.1659
     38 C          63.7247   81.8869   13.5408 C.3     1  UNL1        0.4186
     39 F          63.8749   80.4584   13.9728 F       1  UNL1       -0.1659
     40 F          64.7687   81.6772   12.4843 F       1  UNL1       -0.1659
     41 F          62.6807   82.0967   14.5972 F       1  UNL1       -0.1659
@<TRIPOS>BOND
     1     8     9    1
     2     9    10    2
     3     9    11   am
     4    11    12    1
     5    12    13    1
     6    13    14    1
     7    14     1    1
     8     1     2    2
     9     1     3   am
    10     3     4    1
    11     4     5    1
    12     5    23    1
    13    23    24    2
    14    23    25   am
    15    25    26    1
    16    25    27    1
    17    27    28    1
    18    28    29   ar
    19    29    30   ar
    20    30    34    1
    21    34    35    1
    22    34    36    1
    23    34    37    1
    24    30    31   ar
    25    31    32   ar
    26    32    38    1
    27    38    39    1
    28    38    40    1
    29    38    41    1
    30    32    33   ar
    31     5     6    1
    32     6    17    1
    33    17    18   ar
    34    18    19   ar
    35    19    20   ar
    36    20    21   ar
    37    21    22   ar
    38     6     7    1
    39    14    15    1
    40    15    16    1
    41    16    11    1
    42     7     3    1
    43    33    28   ar
    44    22    17   ar
