@<TRIPOS>MOLECULE
*****
 38 42 0 0 0
SMALL
GASTEIGER

@<TRIPOS>ATOM
      1 C          62.3327   89.8851   13.3158 C.3     1  UNL1        0.1139
      2 C          63.3068   90.7361   12.5563 C.ar    1  UNL1       -0.0029
      3 C          64.4781   91.3495   13.2645 C.ar    1  UNL1       -0.0026
      4 C          65.4522   92.2005   12.5050 C.ar    1  UNL1       -0.0003
      5 C          65.2549   92.4381   11.0371 C.ar    1  UNL1       -0.0000
      6 C          64.0836   91.8246   10.3288 C.ar    1  UNL1       -0.0003
      7 C          63.1095   90.9736   11.0884 C.ar    1  UNL1       -0.0026
      8 C          66.2290   93.2891   10.2775 C.ar    1  UNL1       -0.0000
      9 C          67.4959   92.6868    9.7464 C.ar    1  UNL1       -0.0000
     10 C          68.4700   93.5378    8.9868 C.ar    1  UNL1        0.0000
     11 C          68.1772   94.9911    8.7583 C.ar    1  UNL1        0.0000
     12 C          66.9101   95.5933    9.2894 C.ar    1  UNL1        0.0000
     13 C          65.9361   94.7423   10.0490 C.ar    1  UNL1       -0.0000
     14 C          59.8341   90.0057   12.6143 C.3     1  UNL1        0.1152
     15 N          61.1508   89.2874   12.6117 N.am    1  UNL1       -0.2729
     16 C          61.2857   87.9712   11.9048 C.2     1  UNL1        0.2465
     17 O          60.1038   87.3735   11.2007 O.2     1  UNL1       -0.2730
     18 C          62.6025   87.2528   11.9022 C.3     1  UNL1        0.1835
     19 N          62.7857   86.0256   11.0592 N.am    1  UNL1       -0.2439
     20 C          62.8684   86.1467    9.5664 C.2     1  UNL1        0.2744
     21 O          62.7680   87.4949    8.9165 O.2     1  UNL1       -0.2705
     22 C          63.0516   84.9196    8.7234 C.3     1  UNL1        0.2900
     23 O          63.1520   83.5714    9.3733 O.3     1  UNL1       -0.4643
     24 C          63.0693   83.4503   10.8661 C.ar    1  UNL1        0.1537
     25 C          63.1698   82.1021   11.5159 C.ar    1  UNL1        0.0504
     26 C          63.0870   81.9811   13.0087 C.ar    1  UNL1        0.0713
     27 CL         63.1875   80.6329   13.6586 Cl      1  UNL1       -0.0813
     28 C          62.9038   83.2082   13.8517 C.ar    1  UNL1        0.0696
     29 CL         62.8211   83.0872   15.3445 Cl      1  UNL1       -0.0813
     30 C          62.8034   84.5564   13.2019 C.ar    1  UNL1        0.0302
     31 C          62.8861   84.6774   11.7090 C.ar    1  UNL1        0.0894
     32 C          62.5406   89.6318   14.7797 C.3     1  UNL1        0.0968
     33 N          63.1662   88.3475   15.2371 N.3     1  UNL1       -0.2667
     34 C          64.3288   87.7701   14.4854 C.3     1  UNL1        0.1047
     35 C          64.9545   86.4859   14.9429 C.3     1  UNL1        0.1595
     36 O          64.4175   85.7790   16.1521 O.3     1  UNL1       -0.3508
     37 C          63.2549   86.3564   16.9037 C.3     1  UNL1        0.1595
     38 C          62.6293   87.6407   16.4463 C.3     1  UNL1        0.1047
@<TRIPOS>BOND
     1    14    15    1
     2    15    16   am
     3    16    17    2
     4    16    18    1
     5    18    19    1
     6    19    20   am
     7    20    21    2
     8    20    22    1
     9    22    23    1
    10    23    24    1
    11    24    25   ar
    12    25    26   ar
    13    26    27    1
    14    26    28   ar
    15    28    29    1
    16    28    30   ar
    17    30    31   ar
    18    15     1    1
    19     1    32    1
    20    32    33    1
    21    33    34    1
    22    34    35    1
    23    35    36    1
    24    36    37    1
    25    37    38    1
    26     1     2    1
    27     2     3   ar
    28     3     4   ar
    29     4     5   ar
    30     5     8    1
    31     8     9   ar
    32     9    10   ar
    33    10    11   ar
    34    11    12   ar
    35    12    13   ar
    36     5     6   ar
    37     6     7   ar
    38    31    19    1
    39    38    33    1
    40     7     2   ar
    41    31    24   ar
    42    13     8   ar
@<TRIPOS>MOLECULE
*****
 38 42 0 0 0
SMALL
GASTEIGER

@<TRIPOS>ATOM
      1 C          63.6464   89.4302   13.0474 C.3     1  UNL1        0.1139
      2 C          64.2826   90.6498   12.4495 C.ar    1  UNL1       -0.0029
      3 C          63.8693   91.1193   11.0861 C.ar    1  UNL1       -0.0026
      4 C          64.5055   92.3390   10.4881 C.ar    1  UNL1       -0.0003
      5 C          65.5551   93.0892   11.2534 C.ar    1  UNL1       -0.0000
      6 C          65.9684   92.6196   12.6168 C.ar    1  UNL1       -0.0003
      7 C          65.3322   91.3999   13.2148 C.ar    1  UNL1       -0.0026
      8 C          66.1913   94.3088   10.6554 C.ar    1  UNL1       -0.0000
      9 C          66.0611   95.6359   11.3423 C.ar    1  UNL1       -0.0000
     10 C          66.6973   96.8556   10.7443 C.ar    1  UNL1        0.0000
     11 C          67.4639   96.7482    9.4595 C.ar    1  UNL1        0.0000
     12 C          67.5941   95.4210    8.7726 C.ar    1  UNL1        0.0000
     13 C          66.9579   94.2014    9.3705 C.ar    1  UNL1       -0.0000
     14 C          63.1413   90.4913   15.3645 C.3     1  UNL1        0.1152
     15 N          63.5260   89.3009   14.5370 N.am    1  UNL1       -0.2729
     16 C          63.7905   87.9811   15.1991 C.2     1  UNL1        0.2465
     17 O          63.6701   87.8518   16.6886 O.2     1  UNL1       -0.2730
     18 C          64.1752   86.7906   14.3715 C.3     1  UNL1        0.1835
     19 N          63.6314   85.4343   14.7104 N.am    1  UNL1       -0.2439
     20 C          63.2612   85.1071   16.1266 C.2     1  UNL1        0.2744
     21 O          63.4346   86.1361   17.2041 O.2     1  UNL1       -0.2705
     22 C          62.7174   83.7508   16.4654 C.3     1  UNL1        0.2900
     23 O          62.5440   82.7217   15.3879 O.3     1  UNL1       -0.4643
     24 C          62.9143   83.0490   13.9717 C.ar    1  UNL1        0.1537
     25 C          62.7408   82.0199   12.8942 C.ar    1  UNL1        0.0504
     26 C          63.1111   82.3471   11.4779 C.ar    1  UNL1        0.0713
     27 CL         62.9376   81.3181   10.4005 Cl      1  UNL1       -0.0813
     28 C          63.6549   83.7035   11.1391 C.ar    1  UNL1        0.0696
     29 CL         64.0251   84.0307    9.7229 Cl      1  UNL1       -0.0813
     30 C          63.8283   84.7325   12.2166 C.ar    1  UNL1        0.0302
     31 C          63.4580   84.4052   13.6329 C.ar    1  UNL1        0.0894
     32 C          63.1304   88.3398   12.1558 C.3     1  UNL1        0.0968
     33 N          61.9766   88.6067   11.2353 N.3     1  UNL1       -0.2667
     34 C          60.9329   89.6154   11.6139 C.3     1  UNL1        0.1047
     35 C          59.7790   89.8823   10.6934 C.3     1  UNL1        0.1595
     36 O          59.6689   89.1405    9.3943 O.3     1  UNL1       -0.3508
     37 C          60.7126   88.1319    9.0157 C.3     1  UNL1        0.1595
     38 C          61.8664   87.8650    9.9362 C.3     1  UNL1        0.1047
@<TRIPOS>BOND
     1    14    15    1
     2    15    16   am
     3    16    17    2
     4    16    18    1
     5    18    19    1
     6    19    20   am
     7    20    21    2
     8    20    22    1
     9    22    23    1
    10    23    24    1
    11    24    25   ar
    12    25    26   ar
    13    26    27    1
    14    26    28   ar
    15    28    29    1
    16    28    30   ar
    17    30    31   ar
    18    15     1    1
    19     1    32    1
    20    32    33    1
    21    33    34    1
    22    34    35    1
    23    35    36    1
    24    36    37    1
    25    37    38    1
    26     1     2    1
    27     2     3   ar
    28     3     4   ar
    29     4     5   ar
    30     5     8    1
    31     8     9   ar
    32     9    10   ar
    33    10    11   ar
    34    11    12   ar
    35    12    13   ar
    36     5     6   ar
    37     6     7   ar
    38    31    19    1
    39    38    33    1
    40     7     2   ar
    41    31    24   ar
    42    13     8   ar
@<TRIPOS>MOLECULE
*****
 38 42 0 0 0
SMALL
GASTEIGER

@<TRIPOS>ATOM
      1 C          63.8029   89.6614   13.7775 C.3     1  UNL1        0.1139
      2 C          64.4125   90.8211   13.0472 C.ar    1  UNL1       -0.0029
      3 C          65.4244   91.6907   13.7325 C.ar    1  UNL1       -0.0026
      4 C          66.0341   92.8505   13.0022 C.ar    1  UNL1       -0.0003
      5 C          65.6317   93.1407   11.5866 C.ar    1  UNL1       -0.0000
      6 C          64.6196   92.2710   10.9013 C.ar    1  UNL1       -0.0003
      7 C          64.0101   91.1113   11.6316 C.ar    1  UNL1       -0.0026
      8 C          66.2412   94.3004   10.8563 C.ar    1  UNL1       -0.0000
      9 C          67.0415   94.0648    9.6098 C.ar    1  UNL1       -0.0000
     10 C          67.6511   95.2246    8.8794 C.ar    1  UNL1        0.0000
     11 C          67.4604   96.6200    9.3957 C.ar    1  UNL1        0.0000
     12 C          66.6601   96.8556   10.6424 C.ar    1  UNL1        0.0000
     13 C          66.0506   95.6958   11.3727 C.ar    1  UNL1       -0.0000
     14 C          61.6870   89.8130   15.2775 C.3     1  UNL1        0.1152
     15 N          62.3139   89.5738   13.9359 N.am    1  UNL1       -0.2729
     16 C          61.4517   89.2469   12.7528 C.2     1  UNL1        0.2465
     17 O          59.9626   89.1593   12.9112 O.2     1  UNL1       -0.2730
     18 C          62.0785   89.0077   11.4112 C.3     1  UNL1        0.1835
     19 N          61.2133   88.8581   10.1950 N.am    1  UNL1       -0.2439
     20 C          60.1910   89.9060    9.8683 C.2     1  UNL1        0.2744
     21 O          60.0339   91.1036   10.7578 O.2     1  UNL1       -0.2705
     22 C          59.3258   89.7563    8.6522 C.3     1  UNL1        0.2900
     23 O          59.4830   88.5587    7.7627 O.3     1  UNL1       -0.4643
     24 C          60.5052   87.5108    8.0894 C.ar    1  UNL1        0.1537
     25 C          60.6624   86.3133    7.2000 C.ar    1  UNL1        0.0504
     26 C          61.6846   85.2653    7.5267 C.ar    1  UNL1        0.0713
     27 CL         61.8418   84.0678    6.6372 Cl      1  UNL1       -0.0813
     28 C          62.5499   85.4150    8.7429 C.ar    1  UNL1        0.0696
     29 CL         63.5722   84.3671    9.0696 Cl      1  UNL1       -0.0813
     30 C          62.3928   86.6126    9.6323 C.ar    1  UNL1        0.0302
     31 C          61.3704   87.6605    9.3056 C.ar    1  UNL1        0.0894
     32 C          64.6824   88.5892   14.3494 C.3     1  UNL1        0.0968
     33 N          64.1291   87.2165   14.5937 N.3     1  UNL1       -0.2667
     34 C          63.8750   86.2937   13.4387 C.3     1  UNL1        0.1047
     35 C          63.3218   84.9210   13.6831 C.3     1  UNL1        0.1595
     36 O          63.0227   84.4712   15.0825 O.3     1  UNL1       -0.3508
     37 C          63.2768   85.3939   16.2374 C.3     1  UNL1        0.1595
     38 C          63.8300   86.7666   15.9930 C.3     1  UNL1        0.1047
@<TRIPOS>BOND
     1    14    15    1
     2    15    16   am
     3    16    17    2
     4    16    18    1
     5    18    19    1
     6    19    20   am
     7    20    21    2
     8    20    22    1
     9    22    23    1
    10    23    24    1
    11    24    25   ar
    12    25    26   ar
    13    26    27    1
    14    26    28   ar
    15    28    29    1
    16    28    30   ar
    17    30    31   ar
    18    15     1    1
    19     1    32    1
    20    32    33    1
    21    33    34    1
    22    34    35    1
    23    35    36    1
    24    36    37    1
    25    37    38    1
    26     1     2    1
    27     2     3   ar
    28     3     4   ar
    29     4     5   ar
    30     5     8    1
    31     8     9   ar
    32     9    10   ar
    33    10    11   ar
    34    11    12   ar
    35    12    13   ar
    36     5     6   ar
    37     6     7   ar
    38    31    19    1
    39    38    33    1
    40     7     2   ar
    41    31    24   ar
    42    13     8   ar
@<TRIPOS>MOLECULE
*****
 38 42 0 0 0
SMALL
GASTEIGER

@<TRIPOS>ATOM
      1 C          59.3062   94.9122   -2.9762 C.3     1  UNL1        0.1139
      2 C          60.6199   94.8922   -3.6998 C.ar    1  UNL1       -0.0029
      3 C          61.6001   93.7860   -3.4441 C.ar    1  UNL1       -0.0026
      4 C          62.9140   93.7660   -4.1677 C.ar    1  UNL1       -0.0003
      5 C          63.2474   94.8521   -5.1471 C.ar    1  UNL1       -0.0000
      6 C          62.2671   95.9583   -5.4028 C.ar    1  UNL1       -0.0003
      7 C          60.9534   95.9784   -4.6792 C.ar    1  UNL1       -0.0026
      8 C          64.5612   94.8321   -5.8707 C.ar    1  UNL1       -0.0000
      9 C          64.9603   93.6254   -6.6673 C.ar    1  UNL1       -0.0000
     10 C          66.2741   93.6054   -7.3910 C.ar    1  UNL1        0.0000
     11 C          67.1887   94.7920   -7.3180 C.ar    1  UNL1        0.0000
     12 C          66.7895   95.9987   -6.5213 C.ar    1  UNL1        0.0000
     13 C          65.4758   96.0187   -5.7977 C.ar    1  UNL1       -0.0000
     14 C          58.1104   92.6313   -3.3186 C.3     1  UNL1        0.1152
     15 N          58.7427   93.6429   -2.4094 N.am    1  UNL1       -0.2729
     16 C          58.8116   93.3853   -0.9332 C.2     1  UNL1        0.2465
     17 O          58.2481   92.1159   -0.3664 O.2     1  UNL1       -0.2730
     18 C          59.4439   94.3969   -0.0240 C.3     1  UNL1        0.1835
     19 N          60.6262   94.0147    0.8164 N.am    1  UNL1       -0.2439
     20 C          60.4440   93.1135    2.0015 C.2     1  UNL1        0.2744
     21 O          59.0796   92.5944    2.3463 O.2     1  UNL1       -0.2705
     22 C          61.6263   92.7314    2.8418 C.3     1  UNL1        0.2900
     23 O          62.9907   93.2505    2.4969 O.3     1  UNL1       -0.4643
     24 C          63.1729   94.1517    1.3118 C.ar    1  UNL1        0.1537
     25 C          64.5373   94.6708    0.9670 C.ar    1  UNL1        0.0504
     26 C          64.7194   95.5720   -0.2182 C.ar    1  UNL1        0.0713
     27 CL         66.0839   96.0910   -0.5630 Cl      1  UNL1       -0.0813
     28 C          63.5371   95.9541   -1.0585 C.ar    1  UNL1        0.0696
     29 CL         63.7193   96.8554   -2.2437 Cl      1  UNL1       -0.0813
     30 C          62.1727   95.4351   -0.7137 C.ar    1  UNL1        0.0302
     31 C          61.9906   94.5338    0.4715 C.ar    1  UNL1        0.0894
     32 C          58.5558   96.2016   -2.8194 C.3     1  UNL1        0.0968
     33 N          57.0643   96.1869   -2.6604 N.3     1  UNL1       -0.2667
     34 C          56.4516   96.4204   -1.3112 C.3     1  UNL1        0.1047
     35 C          54.9602   96.4056   -1.1521 C.3     1  UNL1        0.1595
     36 O          54.0814   96.1573   -2.3422 O.3     1  UNL1       -0.3508
     37 C          54.6941   95.9238   -3.6912 C.3     1  UNL1        0.1595
     38 C          56.1856   95.9386   -3.8503 C.3     1  UNL1        0.1047
@<TRIPOS>BOND
     1    14    15    1
     2    15    16   am
     3    16    17    2
     4    16    18    1
     5    18    19    1
     6    19    20   am
     7    20    21    2
     8    20    22    1
     9    22    23    1
    10    23    24    1
    11    24    25   ar
    12    25    26   ar
    13    26    27    1
    14    26    28   ar
    15    28    29    1
    16    28    30   ar
    17    30    31   ar
    18    15     1    1
    19     1    32    1
    20    32    33    1
    21    33    34    1
    22    34    35    1
    23    35    36    1
    24    36    37    1
    25    37    38    1
    26     1     2    1
    27     2     3   ar
    28     3     4   ar
    29     4     5   ar
    30     5     8    1
    31     8     9   ar
    32     9    10   ar
    33    10    11   ar
    34    11    12   ar
    35    12    13   ar
    36     5     6   ar
    37     6     7   ar
    38    31    19    1
    39    38    33    1
    40     7     2   ar
    41    31    24   ar
    42    13     8   ar
@<TRIPOS>MOLECULE
*****
 38 42 0 0 0
SMALL
GASTEIGER

@<TRIPOS>ATOM
      1 C          62.8779   89.7109   12.6735 C.3     1  UNL1        0.1139
      2 C          63.6695   90.8511   12.1050 C.ar    1  UNL1       -0.0029
      3 C          64.6138   91.6192   12.9815 C.ar    1  UNL1       -0.0026
      4 C          65.4055   92.7594   12.4131 C.ar    1  UNL1       -0.0003
      5 C          65.2529   93.1316   10.9680 C.ar    1  UNL1       -0.0000
      6 C          64.3086   92.3634   10.0914 C.ar    1  UNL1       -0.0003
      7 C          63.5169   91.2232   10.6599 C.ar    1  UNL1       -0.0026
      8 C          66.0445   94.2717   10.3995 C.ar    1  UNL1       -0.0000
      9 C          65.8717   95.6548   10.9538 C.ar    1  UNL1       -0.0000
     10 C          66.6633   96.7950   10.3853 C.ar    1  UNL1        0.0000
     11 C          67.6278   96.5522    9.2625 C.ar    1  UNL1        0.0000
     12 C          67.8007   95.1691    8.7082 C.ar    1  UNL1        0.0000
     13 C          67.0090   94.0289    9.2767 C.ar    1  UNL1       -0.0000
     14 C          64.4676   88.9735   14.5915 C.3     1  UNL1        0.1152
     15 N          63.5721   88.6244   13.4399 N.am    1  UNL1       -0.2729
     16 C          63.3709   87.1887   13.0547 C.2     1  UNL1        0.2465
     17 O          64.0651   86.1021   13.8212 O.2     1  UNL1       -0.2730
     18 C          62.4754   86.8396   11.9032 C.3     1  UNL1        0.1835
     19 N          62.7609   85.6233   11.0729 N.am    1  UNL1       -0.2439
     20 C          62.9977   85.7606    9.5981 C.2     1  UNL1        0.2744
     21 O          62.9489   87.1141    8.9535 O.2     1  UNL1       -0.2705
     22 C          63.2832   84.5443    8.7680 C.3     1  UNL1        0.2900
     23 O          63.3320   83.1908    9.4126 O.3     1  UNL1       -0.4643
     24 C          63.0952   83.0535   10.8874 C.ar    1  UNL1        0.1537
     25 C          63.1440   81.7000   11.5321 C.ar    1  UNL1        0.0504
     26 C          62.9073   81.5627   13.0068 C.ar    1  UNL1        0.0713
     27 CL         62.9561   80.2091   13.6515 Cl      1  UNL1       -0.0813
     28 C          62.6218   82.7790   13.8371 C.ar    1  UNL1        0.0696
     29 CL         62.3850   82.6417   15.3119 Cl      1  UNL1       -0.0813
     30 C          62.5730   84.1325   13.1924 C.ar    1  UNL1        0.0302
     31 C          62.8097   84.2698   11.7176 C.ar    1  UNL1        0.0894
     32 C          61.3919   89.6572   12.4755 C.3     1  UNL1        0.0968
     33 N          60.8263   89.2136   11.1590 N.3     1  UNL1       -0.2667
     34 C          60.9635   90.0909    9.9499 C.3     1  UNL1        0.1047
     35 C          60.3978   89.6472    8.6334 C.3     1  UNL1        0.1595
     36 O          59.6949   88.3264    8.5259 O.3     1  UNL1       -0.3508
     37 C          59.5578   87.4493    9.7349 C.3     1  UNL1        0.1595
     38 C          60.1234   87.8929   11.0515 C.3     1  UNL1        0.1047
@<TRIPOS>BOND
     1    14    15    1
     2    15    16   am
     3    16    17    2
     4    16    18    1
     5    18    19    1
     6    19    20   am
     7    20    21    2
     8    20    22    1
     9    22    23    1
    10    23    24    1
    11    24    25   ar
    12    25    26   ar
    13    26    27    1
    14    26    28   ar
    15    28    29    1
    16    28    30   ar
    17    30    31   ar
    18    15     1    1
    19     1    32    1
    20    32    33    1
    21    33    34    1
    22    34    35    1
    23    35    36    1
    24    36    37    1
    25    37    38    1
    26     1     2    1
    27     2     3   ar
    28     3     4   ar
    29     4     5   ar
    30     5     8    1
    31     8     9   ar
    32     9    10   ar
    33    10    11   ar
    34    11    12   ar
    35    12    13   ar
    36     5     6   ar
    37     6     7   ar
    38    31    19    1
    39    38    33    1
    40     7     2   ar
    41    31    24   ar
    42    13     8   ar
@<TRIPOS>MOLECULE
*****
 38 42 0 0 0
SMALL
GASTEIGER

@<TRIPOS>ATOM
      1 C          59.8127   95.1218   -2.5434 C.3     1  UNL1        0.1139
      2 C          61.1210   95.2245   -3.2697 C.ar    1  UNL1       -0.0029
      3 C          61.7186   94.0089   -3.9140 C.ar    1  UNL1       -0.0026
      4 C          63.0270   94.1116   -4.6404 C.ar    1  UNL1       -0.0003
      5 C          63.7378   95.4300   -4.7225 C.ar    1  UNL1       -0.0000
      6 C          63.1401   96.6456   -4.0781 C.ar    1  UNL1       -0.0003
      7 C          61.8318   96.5429   -3.3518 C.ar    1  UNL1       -0.0026
      8 C          65.0461   95.5327   -5.4488 C.ar    1  UNL1       -0.0000
      9 C          65.4975   94.4159   -6.3426 C.ar    1  UNL1       -0.0000
     10 C          66.8059   94.5186   -7.0690 C.ar    1  UNL1        0.0000
     11 C          67.6629   95.7382   -6.9016 C.ar    1  UNL1        0.0000
     12 C          67.2115   96.8551   -6.0078 C.ar    1  UNL1        0.0000
     13 C          65.9031   96.7524   -5.2814 C.ar    1  UNL1       -0.0000
     14 C          58.4694   92.9594   -3.0629 C.3     1  UNL1        0.1152
     15 N          59.2950   93.7801   -2.1169 N.am    1  UNL1       -0.2729
     16 C          59.6029   93.2591   -0.7443 C.2     1  UNL1        0.2465
     17 O          59.0852   91.9174   -0.3178 O.2     1  UNL1       -0.2730
     18 C          60.4284   94.0797    0.2016 C.3     1  UNL1        0.1835
     19 N          61.4584   93.4165    1.0674 N.am    1  UNL1       -0.2439
     20 C          62.9075   93.4701    0.6839 C.2     1  UNL1        0.2744
     21 O          63.3268   94.1868   -0.5653 O.2     1  UNL1       -0.2705
     22 C          63.9374   92.8069    1.5497 C.3     1  UNL1        0.2900
     23 O          63.5181   92.0902    2.7989 O.3     1  UNL1       -0.4643
     24 C          62.0690   92.0366    3.1823 C.ar    1  UNL1        0.1537
     25 C          61.6497   91.3199    4.4315 C.ar    1  UNL1        0.0504
     26 C          60.2006   91.2664    4.8150 C.ar    1  UNL1        0.0713
     27 CL         59.7813   90.5496    6.0642 Cl      1  UNL1       -0.0813
     28 C          59.1706   91.9296    3.9493 C.ar    1  UNL1        0.0696
     29 CL         57.7215   91.8760    4.3327 Cl      1  UNL1       -0.0813
     30 C          59.5899   92.6463    2.7001 C.ar    1  UNL1        0.0302
     31 C          61.0391   92.6998    2.3166 C.ar    1  UNL1        0.0894
     32 C          59.0220   96.3607   -2.2435 C.3     1  UNL1        0.0968
     33 N          57.5297   96.3532   -2.3957 N.3     1  UNL1       -0.2667
     34 C          56.9122   96.5812   -3.7437 C.3     1  UNL1        0.1047
     35 C          55.4200   96.5737   -3.8959 C.3     1  UNL1        0.1595
     36 O          54.5453   96.3383   -2.7002 O.3     1  UNL1       -0.3508
     37 C          55.1628   96.1104   -1.3524 C.3     1  UNL1        0.1595
     38 C          56.6550   96.1178   -1.2002 C.3     1  UNL1        0.1047
@<TRIPOS>BOND
     1    14    15    1
     2    15    16   am
     3    16    17    2
     4    16    18    1
     5    18    19    1
     6    19    20   am
     7    20    21    2
     8    20    22    1
     9    22    23    1
    10    23    24    1
    11    24    25   ar
    12    25    26   ar
    13    26    27    1
    14    26    28   ar
    15    28    29    1
    16    28    30   ar
    17    30    31   ar
    18    15     1    1
    19     1    32    1
    20    32    33    1
    21    33    34    1
    22    34    35    1
    23    35    36    1
    24    36    37    1
    25    37    38    1
    26     1     2    1
    27     2     3   ar
    28     3     4   ar
    29     4     5   ar
    30     5     8    1
    31     8     9   ar
    32     9    10   ar
    33    10    11   ar
    34    11    12   ar
    35    12    13   ar
    36     5     6   ar
    37     6     7   ar
    38    31    19    1
    39    38    33    1
    40     7     2   ar
    41    31    24   ar
    42    13     8   ar
@<TRIPOS>MOLECULE
*****
 38 42 0 0 0
SMALL
GASTEIGER

@<TRIPOS>ATOM
      1 C          63.8567   90.2925   13.3264 C.3     1  UNL1        0.1139
      2 C          63.7780   88.7948   13.3526 C.ar    1  UNL1       -0.0029
      3 C          63.1686   88.0555   12.1985 C.ar    1  UNL1       -0.0026
      4 C          63.0898   86.5578   12.2247 C.ar    1  UNL1       -0.0003
      5 C          63.6205   85.7994   13.4051 C.ar    1  UNL1       -0.0000
      6 C          64.2299   86.5387   14.5593 C.ar    1  UNL1       -0.0003
      7 C          64.3086   88.0364   14.5330 C.ar    1  UNL1       -0.0026
      8 C          63.5417   84.3017   13.4313 C.ar    1  UNL1       -0.0000
      9 C          64.1893   83.4975   12.3434 C.ar    1  UNL1       -0.0000
     10 C          64.1106   81.9997   12.3696 C.ar    1  UNL1        0.0000
     11 C          63.3843   81.3063   13.4838 C.ar    1  UNL1        0.0000
     12 C          62.7366   82.1106   14.5718 C.ar    1  UNL1        0.0000
     13 C          62.8153   83.6083   14.5456 C.ar    1  UNL1       -0.0000
     14 C          64.6722   90.4541   15.7878 C.3     1  UNL1        0.1152
     15 N          64.6051   91.0231   14.4016 N.am    1  UNL1       -0.2729
     16 C          65.2863   92.3229   14.0905 C.2     1  UNL1        0.2465
     17 O          66.0347   93.0535   15.1658 O.2     1  UNL1       -0.2730
     18 C          65.2191   92.8919   12.7043 C.3     1  UNL1        0.1835
     19 N          66.4446   92.9066   11.8394 N.am    1  UNL1       -0.2439
     20 C          67.5571   91.9344   12.0984 C.2     1  UNL1        0.2744
     21 O          67.4442   90.9474   13.2223 O.2     1  UNL1       -0.2705
     22 C          68.7825   91.9492   11.2335 C.3     1  UNL1        0.2900
     23 O          68.8955   92.9361   10.1096 O.3     1  UNL1       -0.4643
     24 C          67.7830   93.9084    9.8506 C.ar    1  UNL1        0.1537
     25 C          67.8959   94.8953    8.7268 C.ar    1  UNL1        0.0504
     26 C          66.7834   95.8676    8.4678 C.ar    1  UNL1        0.0713
     27 CL         66.8964   96.8545    7.3439 Cl      1  UNL1       -0.0813
     28 C          65.5579   95.8528    9.3327 C.ar    1  UNL1        0.0696
     29 CL         64.4455   96.8251    9.0737 Cl      1  UNL1       -0.0813
     30 C          65.4450   94.8659   10.4566 C.ar    1  UNL1        0.0302
     31 C          66.5576   93.8936   10.7155 C.ar    1  UNL1        0.0894
     32 C          63.1871   91.0596   12.2249 C.3     1  UNL1        0.0968
     33 N          62.0217   90.4605   11.4948 N.3     1  UNL1       -0.2667
     34 C          60.7600   90.1326   12.2370 C.3     1  UNL1        0.1047
     35 C          59.5946   89.5335   11.5069 C.3     1  UNL1        0.1595
     36 O          59.6909   89.2623   10.0347 O.3     1  UNL1       -0.3508
     37 C          60.9526   89.5902    9.2927 C.3     1  UNL1        0.1595
     38 C          62.1180   90.1893   10.0227 C.3     1  UNL1        0.1047
@<TRIPOS>BOND
     1    14    15    1
     2    15    16   am
     3    16    17    2
     4    16    18    1
     5    18    19    1
     6    19    20   am
     7    20    21    2
     8    20    22    1
     9    22    23    1
    10    23    24    1
    11    24    25   ar
    12    25    26   ar
    13    26    27    1
    14    26    28   ar
    15    28    29    1
    16    28    30   ar
    17    30    31   ar
    18    15     1    1
    19     1    32    1
    20    32    33    1
    21    33    34    1
    22    34    35    1
    23    35    36    1
    24    36    37    1
    25    37    38    1
    26     1     2    1
    27     2     3   ar
    28     3     4   ar
    29     4     5   ar
    30     5     8    1
    31     8     9   ar
    32     9    10   ar
    33    10    11   ar
    34    11    12   ar
    35    12    13   ar
    36     5     6   ar
    37     6     7   ar
    38    31    19    1
    39    38    33    1
    40     7     2   ar
    41    31    24   ar
    42    13     8   ar
@<TRIPOS>MOLECULE
*****
 38 42 0 0 0
SMALL
GASTEIGER

@<TRIPOS>ATOM
      1 C          64.6005   90.7202   13.3838 C.3     1  UNL1        0.1139
      2 C          63.6910   90.1229   12.3513 C.ar    1  UNL1       -0.0029
      3 C          63.0884   90.9936   11.2889 C.ar    1  UNL1       -0.0026
      4 C          62.1789   90.3963   10.2563 C.ar    1  UNL1       -0.0003
      5 C          61.8720   88.9283   10.2863 C.ar    1  UNL1       -0.0000
      6 C          62.4746   88.0577   11.3488 C.ar    1  UNL1       -0.0003
      7 C          63.3841   88.6550   12.3813 C.ar    1  UNL1       -0.0026
      8 C          60.9625   88.3311    9.2538 C.ar    1  UNL1       -0.0000
      9 C          60.9018   86.8426    9.0789 C.ar    1  UNL1       -0.0000
     10 C          59.9923   86.2452    8.0464 C.ar    1  UNL1        0.0000
     11 C          59.1436   87.1364    7.1888 C.ar    1  UNL1        0.0000
     12 C          59.2043   88.6250    7.3637 C.ar    1  UNL1        0.0000
     13 C          60.1138   89.2223    8.3962 C.ar    1  UNL1       -0.0000
     14 C          63.9448   92.2142   15.4056 C.3     1  UNL1        0.1152
     15 N          64.1373   90.8537   14.8042 N.am    1  UNL1       -0.2729
     16 C          63.8665   89.6265   15.6232 C.2     1  UNL1        0.2465
     17 O          63.4033   89.7599   17.0437 O.2     1  UNL1       -0.2730
     18 C          64.0589   88.2659   15.0218 C.3     1  UNL1        0.1835
     19 N          63.4800   87.0583   15.6978 N.am    1  UNL1       -0.2439
     20 C          63.0403   87.1389   17.1295 C.2     1  UNL1        0.2744
     21 O          63.1794   88.4270   17.8855 O.2     1  UNL1       -0.2705
     22 C          62.4614   85.9315   17.8054 C.3     1  UNL1        0.2900
     23 O          62.3223   84.6434   17.0494 O.3     1  UNL1       -0.4643
     24 C          62.7620   84.5628   15.6177 C.ar    1  UNL1        0.1537
     25 C          62.6229   83.2747   14.8617 C.ar    1  UNL1        0.0504
     26 C          63.0626   83.1941   13.4299 C.ar    1  UNL1        0.0713
     27 CL         62.9235   81.9060   12.6740 Cl      1  UNL1       -0.0813
     28 C          63.6416   84.4016   12.7540 C.ar    1  UNL1        0.0696
     29 CL         64.0813   84.3210   11.3222 Cl      1  UNL1       -0.0813
     30 C          63.7807   85.6897   13.5099 C.ar    1  UNL1        0.0302
     31 C          63.3409   85.7703   14.9418 C.ar    1  UNL1        0.0894
     32 C          65.9732   91.1841   12.9959 C.3     1  UNL1        0.0968
     33 N          66.1419   92.4428   12.1977 N.3     1  UNL1       -0.2667
     34 C          66.3243   92.3692   10.7106 C.3     1  UNL1        0.1047
     35 C          66.4930   93.6279    9.9124 C.3     1  UNL1        0.1595
     36 O          66.4791   94.9604   10.6014 O.3     1  UNL1       -0.3508
     37 C          66.2966   95.0340   12.0884 C.3     1  UNL1        0.1595
     38 C          66.1280   93.7752   12.8865 C.3     1  UNL1        0.1047
@<TRIPOS>BOND
     1    14    15    1
     2    15    16   am
     3    16    17    2
     4    16    18    1
     5    18    19    1
     6    19    20   am
     7    20    21    2
     8    20    22    1
     9    22    23    1
    10    23    24    1
    11    24    25   ar
    12    25    26   ar
    13    26    27    1
    14    26    28   ar
    15    28    29    1
    16    28    30   ar
    17    30    31   ar
    18    15     1    1
    19     1    32    1
    20    32    33    1
    21    33    34    1
    22    34    35    1
    23    35    36    1
    24    36    37    1
    25    37    38    1
    26     1     2    1
    27     2     3   ar
    28     3     4   ar
    29     4     5   ar
    30     5     8    1
    31     8     9   ar
    32     9    10   ar
    33    10    11   ar
    34    11    12   ar
    35    12    13   ar
    36     5     6   ar
    37     6     7   ar
    38    31    19    1
    39    38    33    1
    40     7     2   ar
    41    31    24   ar
    42    13     8   ar
@<TRIPOS>MOLECULE
*****
 38 42 0 0 0
SMALL
GASTEIGER

@<TRIPOS>ATOM
      1 C          61.8559   89.6964   10.8983 C.3     1  UNL1        0.1139
      2 C          62.9951   90.2535   11.6994 C.ar    1  UNL1       -0.0029
      3 C          63.8082   91.3909   11.1563 C.ar    1  UNL1       -0.0026
      4 C          64.9475   91.9481   11.9575 C.ar    1  UNL1       -0.0003
      5 C          65.2735   91.3678   13.3017 C.ar    1  UNL1       -0.0000
      6 C          64.4603   90.2303   13.8448 C.ar    1  UNL1       -0.0003
      7 C          63.3211   89.6732   13.0436 C.ar    1  UNL1       -0.0026
      8 C          66.4127   91.9250   14.1028 C.ar    1  UNL1       -0.0000
      9 C          67.8090   91.8730   13.5575 C.ar    1  UNL1       -0.0000
     10 C          68.9483   92.4302   14.3587 C.ar    1  UNL1        0.0000
     11 C          68.6911   93.0393   15.7051 C.ar    1  UNL1        0.0000
     12 C          67.2946   93.0912   16.2504 C.ar    1  UNL1        0.0000
     13 C          66.1555   92.5341   15.4492 C.ar    1  UNL1       -0.0000
     14 C          59.6491   89.0495   12.1072 C.3     1  UNL1        0.1152
     15 N          60.9595   88.6521   11.4949 N.am    1  UNL1       -0.2729
     16 C          61.3735   87.2104   11.4792 C.2     1  UNL1        0.2465
     17 O          60.4771   86.1662   12.0758 O.2     1  UNL1       -0.2730
     18 C          62.6839   86.8130   10.8669 C.3     1  UNL1        0.1835
     19 N          63.1265   85.3803   10.9066 N.am    1  UNL1       -0.2439
     20 C          63.2084   84.5853    9.6373 C.2     1  UNL1        0.2744
     21 O          62.8478   85.2229    8.3283 O.2     1  UNL1       -0.2705
     22 C          63.6510   83.1526    9.6769 C.3     1  UNL1        0.2900
     23 O          64.0116   82.5150   10.9859 O.3     1  UNL1       -0.4643
     24 C          63.9296   83.3100   12.2552 C.ar    1  UNL1        0.1537
     25 C          64.2902   82.6724   13.5642 C.ar    1  UNL1        0.0504
     26 C          64.2082   83.4674   14.8335 C.ar    1  UNL1        0.0713
     27 CL         64.5688   82.8298   16.1424 Cl      1  UNL1       -0.0813
     28 C          63.7656   84.9001   14.7938 C.ar    1  UNL1        0.0696
     29 CL         63.6837   85.6952   16.0631 Cl      1  UNL1       -0.0813
     30 C          63.4051   85.5378   13.4849 C.ar    1  UNL1        0.0302
     31 C          63.4870   84.7427   12.2155 C.ar    1  UNL1        0.0894
     32 C          61.6132   90.1835    9.5004 C.3     1  UNL1        0.0968
     33 N          60.6994   89.4199    8.5883 N.3     1  UNL1       -0.2667
     34 C          60.5854   87.9297    8.7165 C.3     1  UNL1        0.1047
     35 C          59.6717   87.1661    7.8043 C.3     1  UNL1        0.1595
     36 O          58.8720   87.8928    6.7639 O.3     1  UNL1       -0.3508
     37 C          58.9860   89.3829    6.6356 C.3     1  UNL1        0.1595
     38 C          59.8998   90.1465    7.5478 C.3     1  UNL1        0.1047
@<TRIPOS>BOND
     1    14    15    1
     2    15    16   am
     3    16    17    2
     4    16    18    1
     5    18    19    1
     6    19    20   am
     7    20    21    2
     8    20    22    1
     9    22    23    1
    10    23    24    1
    11    24    25   ar
    12    25    26   ar
    13    26    27    1
    14    26    28   ar
    15    28    29    1
    16    28    30   ar
    17    30    31   ar
    18    15     1    1
    19     1    32    1
    20    32    33    1
    21    33    34    1
    22    34    35    1
    23    35    36    1
    24    36    37    1
    25    37    38    1
    26     1     2    1
    27     2     3   ar
    28     3     4   ar
    29     4     5   ar
    30     5     8    1
    31     8     9   ar
    32     9    10   ar
    33    10    11   ar
    34    11    12   ar
    35    12    13   ar
    36     5     6   ar
    37     6     7   ar
    38    31    19    1
    39    38    33    1
    40     7     2   ar
    41    31    24   ar
    42    13     8   ar
