@<TRIPOS>MOLECULE
*****
 25 27 0 0 0
SMALL
GASTEIGER

@<TRIPOS>ATOM
      1 N          61.4406   89.7308   12.6206 N.pl3   1  UNL1       -0.2150
      2 H          60.6330   89.9788   13.1261 H       1  UNL1        0.1737
      3 C          65.4340   91.4561   13.7722 C.ar    1  UNL1        0.0562
      4 C          64.6643   90.6251   14.7555 C.ar    1  UNL1        0.0060
      5 C          63.3332   90.0500   14.3717 C.ar    1  UNL1        0.0160
      6 C          62.7718   90.3059   13.0045 C.ar    1  UNL1        0.0648
      7 C          63.5414   91.1369   12.0211 C.ar    1  UNL1        0.0160
      8 C          64.8725   91.7120   12.4050 C.ar    1  UNL1        0.0060
      9 C          69.1813   94.2156   16.2670 C.3     1  UNL1        0.0773
     10 C          68.4876   93.2996   15.3027 C.ar    1  UNL1        0.1812
     11 N          69.1396   92.5328   14.1905 N.ar    1  UNL1       -0.0602
     12 O          68.0750   91.7489   13.4818 O.2     1  UNL1       -0.3328
     13 C          66.7651   92.0312   14.1560 C.ar    1  UNL1        0.2597
     14 N          67.0201   92.9896   15.2814 N.ar    1  UNL1       -0.1911
     15 S          61.3399   88.7777   11.4667 S.O2    1  UNL1        0.0736
     16 O          62.4311   87.9395   12.0639 O.2     1  UNL1       -0.1499
     17 O          60.2488   89.6160   10.8696 O.2     1  UNL1       -0.1499
     18 C          61.2392   87.8246   10.3128 C.ar    1  UNL1        0.1268
     19 C          62.3619   86.8718   10.0268 C.ar    1  UNL1        0.0316
     20 C          62.2613   85.9188    8.8729 C.ar    1  UNL1        0.0599
     21 CL         63.3840   84.9660    8.5870 Cl      1  UNL1       -0.0822
     22 C          61.0380   85.9185    8.0050 C.ar    1  UNL1        0.0229
     23 C          59.9153   86.8713    8.2909 C.ar    1  UNL1        0.0599
     24 CL         58.6919   86.8710    7.4229 Cl      1  UNL1       -0.0822
     25 C          60.0159   87.8244    9.4448 C.ar    1  UNL1        0.0316
@<TRIPOS>BOND
     1     9    10    1
     2    10    11   ar
     3    11    12   ar
     4    12    13   ar
     5    13     3    1
     6     3     4   ar
     7     4     5   ar
     8     5     6   ar
     9     6     1    1
    10     1    15    1
    11    15    16    2
    12    15    17    2
    13    15    18    1
    14    18    19   ar
    15    19    20   ar
    16    20    21    1
    17    20    22   ar
    18    22    23   ar
    19    23    24    1
    20    23    25   ar
    21     6     7   ar
    22     7     8   ar
    23    13    14   ar
    24    14    10   ar
    25     8     3   ar
    26    25    18   ar
    27     1     2    1
@<TRIPOS>MOLECULE
*****
 25 27 0 0 0
SMALL
GASTEIGER

@<TRIPOS>ATOM
      1 N          61.4225   89.7406   12.5955 N.pl3   1  UNL1       -0.2150
      2 H          60.6140   89.9941   13.0967 H       1  UNL1        0.1737
      3 C          65.4190   91.4513   13.7579 C.ar    1  UNL1        0.0562
      4 C          64.6434   90.6236   14.7393 C.ar    1  UNL1        0.0060
      5 C          63.3113   90.0534   14.3519 C.ar    1  UNL1        0.0160
      6 C          62.7548   90.3109   12.9829 C.ar    1  UNL1        0.0648
      7 C          63.5304   91.1385   12.0015 C.ar    1  UNL1        0.0160
      8 C          64.8625   91.7088   12.3889 C.ar    1  UNL1        0.0060
      9 C          69.1704   94.1934   16.2658 C.3     1  UNL1        0.0773
     10 C          68.4755   93.2820   15.2981 C.ar    1  UNL1        0.1812
     11 N          69.1271   92.5162   14.1849 N.ar    1  UNL1       -0.0602
     12 O          68.0614   91.7372   13.4725 O.2     1  UNL1       -0.3328
     13 C          66.7513   92.0216   14.1453 C.ar    1  UNL1        0.2597
     14 N          67.0072   92.9763   15.2736 N.ar    1  UNL1       -0.1911
     15 S          61.3223   88.7841   11.4444 S.O2    1  UNL1        0.0736
     16 O          62.3975   87.9356   12.0559 O.2     1  UNL1       -0.1499
     17 O          60.2471   89.6326   10.8330 O.2     1  UNL1       -0.1499
     18 C          61.2220   87.8275   10.2933 C.ar    1  UNL1        0.1268
     19 C          59.9980   87.8233    9.4262 C.ar    1  UNL1        0.0316
     20 C          59.8976   86.8668    8.2751 C.ar    1  UNL1        0.0599
     21 CL         58.6737   86.8626    7.4080 Cl      1  UNL1       -0.0822
     22 C          61.0213   85.9146    7.9911 C.ar    1  UNL1        0.0229
     23 C          62.2452   85.9189    8.8582 C.ar    1  UNL1        0.0599
     24 CL         63.3689   84.9666    8.5742 Cl      1  UNL1       -0.0822
     25 C          62.3456   86.8753   10.0093 C.ar    1  UNL1        0.0316
@<TRIPOS>BOND
     1     9    10    1
     2    10    11   ar
     3    11    12   ar
     4    12    13   ar
     5    13     3    1
     6     3     4   ar
     7     4     5   ar
     8     5     6   ar
     9     6     1    1
    10     1    15    1
    11    15    16    2
    12    15    17    2
    13    15    18    1
    14    18    19   ar
    15    19    20   ar
    16    20    21    1
    17    20    22   ar
    18    22    23   ar
    19    23    24    1
    20    23    25   ar
    21     6     7   ar
    22     7     8   ar
    23    13    14   ar
    24    14    10   ar
    25     8     3   ar
    26    25    18   ar
    27     1     2    1
@<TRIPOS>MOLECULE
*****
 25 27 0 0 0
SMALL
GASTEIGER

@<TRIPOS>ATOM
      1 N          62.7992   85.6425   12.4445 N.pl3   1  UNL1       -0.2150
      2 H          62.7948   84.8056   12.9629 H       1  UNL1        0.1737
      3 C          64.4242   89.4168   14.2786 C.ar    1  UNL1        0.0562
      4 C          63.7160   89.4696   12.9574 C.ar    1  UNL1        0.0060
      5 C          63.1744   88.2115   12.3461 C.ar    1  UNL1        0.0160
      6 C          63.3409   86.9006   13.0559 C.ar    1  UNL1        0.0648
      7 C          64.0491   86.8478   14.3771 C.ar    1  UNL1        0.0160
      8 C          64.5907   88.1059   14.9885 C.ar    1  UNL1        0.0060
      9 C          67.6529   93.3978   15.5469 C.3     1  UNL1        0.0773
     10 C          66.4500   92.5047   15.4730 C.ar    1  UNL1        0.1812
     11 N          65.1490   92.7170   16.1889 N.ar    1  UNL1       -0.0602
     12 O          64.2318   91.5861   15.8286 O.2     1  UNL1       -0.3328
     13 C          64.9659   90.6749   14.8901 C.ar    1  UNL1        0.2597
     14 N          66.3368   91.2426   14.6703 N.ar    1  UNL1       -0.1911
     15 S          62.2642   85.6596   11.0433 S.O2    1  UNL1        0.0736
     16 O          61.0836   86.4622   11.5038 O.2     1  UNL1       -0.1499
     17 O          63.4447   84.8571   10.5827 O.2     1  UNL1       -0.1499
     18 C          61.7292   85.6767    9.6420 C.ar    1  UNL1        0.1268
     19 C          62.4880   84.9967    8.5412 C.ar    1  UNL1        0.0316
     20 C          61.9531   85.0138    7.1399 C.ar    1  UNL1        0.0599
     21 CL         62.7119   84.3338    6.0391 Cl      1  UNL1       -0.0822
     22 C          60.6593   85.7108    6.8395 C.ar    1  UNL1        0.0229
     23 C          59.9005   86.3908    7.9403 C.ar    1  UNL1        0.0599
     24 CL         58.6067   87.0879    7.6398 Cl      1  UNL1       -0.0822
     25 C          60.4354   86.3738    9.3416 C.ar    1  UNL1        0.0316
@<TRIPOS>BOND
     1     9    10    1
     2    10    11   ar
     3    11    12   ar
     4    12    13   ar
     5    13     3    1
     6     3     4   ar
     7     4     5   ar
     8     5     6   ar
     9     6     1    1
    10     1    15    1
    11    15    16    2
    12    15    17    2
    13    15    18    1
    14    18    19   ar
    15    19    20   ar
    16    20    21    1
    17    20    22   ar
    18    22    23   ar
    19    23    24    1
    20    23    25   ar
    21     6     7   ar
    22     7     8   ar
    23    13    14   ar
    24    14    10   ar
    25     8     3   ar
    26    25    18   ar
    27     1     2    1
@<TRIPOS>MOLECULE
*****
 25 27 0 0 0
SMALL
GASTEIGER

@<TRIPOS>ATOM
      1 N          62.7782   85.6623   12.4576 N.pl3   1  UNL1       -0.2150
      2 H          62.7625   84.8284   12.9806 H       1  UNL1        0.1737
      3 C          64.4319   89.4300   14.2796 C.ar    1  UNL1        0.0562
      4 C          63.7229   89.4842   12.9588 C.ar    1  UNL1        0.0060
      5 C          63.1717   88.2283   12.3515 C.ar    1  UNL1        0.0160
      6 C          63.3295   86.9183   13.0650 C.ar    1  UNL1        0.0648
      7 C          64.0384   86.8641   14.3857 C.ar    1  UNL1        0.0160
      8 C          64.5896   88.1200   14.9930 C.ar    1  UNL1        0.0060
      9 C          67.6833   93.4018   15.5185 C.3     1  UNL1        0.0773
     10 C          66.4776   92.5116   15.4564 C.ar    1  UNL1        0.1812
     11 N          65.1850   92.7257   16.1868 N.ar    1  UNL1       -0.0602
     12 O          64.2614   91.5974   15.8348 O.2     1  UNL1       -0.3328
     13 C          64.9831   90.6860   14.8869 C.ar    1  UNL1        0.2597
     14 N          66.3528   91.2510   14.6531 N.ar    1  UNL1       -0.1911
     15 S          62.2509   85.6770   11.0534 S.O2    1  UNL1        0.0736
     16 O          63.4270   84.8622   10.6032 O.2     1  UNL1       -0.1499
     17 O          61.0748   86.4919   11.5037 O.2     1  UNL1       -0.1499
     18 C          61.7235   85.6918    9.6492 C.ar    1  UNL1        0.1268
     19 C          60.4254   86.3781    9.3428 C.ar    1  UNL1        0.0316
     20 C          59.8980   86.3928    7.9387 C.ar    1  UNL1        0.0599
     21 CL         58.5998   87.0791    7.6323 Cl      1  UNL1       -0.0822
     22 C          60.6687   85.7214    6.8410 C.ar    1  UNL1        0.0229
     23 C          61.9669   85.0351    7.1474 C.ar    1  UNL1        0.0599
     24 CL         62.7376   84.3636    6.0496 Cl      1  UNL1       -0.0822
     25 C          62.4943   85.0203    8.5515 C.ar    1  UNL1        0.0316
@<TRIPOS>BOND
     1     9    10    1
     2    10    11   ar
     3    11    12   ar
     4    12    13   ar
     5    13     3    1
     6     3     4   ar
     7     4     5   ar
     8     5     6   ar
     9     6     1    1
    10     1    15    1
    11    15    16    2
    12    15    17    2
    13    15    18    1
    14    18    19   ar
    15    19    20   ar
    16    20    21    1
    17    20    22   ar
    18    22    23   ar
    19    23    24    1
    20    23    25   ar
    21     6     7   ar
    22     7     8   ar
    23    13    14   ar
    24    14    10   ar
    25     8     3   ar
    26    25    18   ar
    27     1     2    1
@<TRIPOS>MOLECULE
*****
 25 27 0 0 0
SMALL
GASTEIGER

@<TRIPOS>ATOM
      1 N          61.8161   88.7590   11.7199 N.pl3   1  UNL1       -0.2150
      2 H          60.8850   89.0782   11.7047 H       1  UNL1        0.1737
      3 C          64.9579   91.0896   13.9442 C.ar    1  UNL1        0.0562
      4 C          64.4192   89.8151   14.5232 C.ar    1  UNL1        0.0060
      5 C          63.3719   89.0383   13.7818 C.ar    1  UNL1        0.0160
      6 C          62.8634   89.5359   12.4613 C.ar    1  UNL1        0.0648
      7 C          63.4021   90.8104   11.8822 C.ar    1  UNL1        0.0160
      8 C          64.4494   91.5873   12.6236 C.ar    1  UNL1        0.0060
      9 C          69.6076   93.1136   15.4156 C.3     1  UNL1        0.0773
     10 C          68.1424   92.7969   15.3619 C.ar    1  UNL1        0.1812
     11 N          67.0910   93.3274   16.2911 N.ar    1  UNL1       -0.0602
     12 O          65.7702   92.7524   15.8730 O.2     1  UNL1       -0.3328
     13 C          66.0052   91.8666   14.6856 C.ar    1  UNL1        0.2597
     14 N          67.4713   91.8940   14.3697 N.ar    1  UNL1       -0.1911
     15 S          62.1876   87.4956   11.0016 S.O2    1  UNL1        0.0736
     16 O          62.6219   86.8847   12.3008 O.2     1  UNL1       -0.1499
     17 O          61.7533   88.1066    9.7024 O.2     1  UNL1       -0.1499
     18 C          62.5591   86.2323   10.2832 C.ar    1  UNL1        0.1268
     19 C          62.3793   86.1339    8.7973 C.ar    1  UNL1        0.0316
     20 C          62.7508   84.8706    8.0789 C.ar    1  UNL1        0.0599
     21 CL         62.5710   84.7722    6.5930 Cl      1  UNL1       -0.0822
     22 C          63.3020   83.7057    8.8465 C.ar    1  UNL1        0.0229
     23 C          63.4818   83.8041   10.3324 C.ar    1  UNL1        0.0599
     24 CL         64.0330   82.6392   11.1000 Cl      1  UNL1       -0.0822
     25 C          63.1103   85.0674   11.0508 C.ar    1  UNL1        0.0316
@<TRIPOS>BOND
     1     9    10    1
     2    10    11   ar
     3    11    12   ar
     4    12    13   ar
     5    13     3    1
     6     3     4   ar
     7     4     5   ar
     8     5     6   ar
     9     6     1    1
    10     1    15    1
    11    15    16    2
    12    15    17    2
    13    15    18    1
    14    18    19   ar
    15    19    20   ar
    16    20    21    1
    17    20    22   ar
    18    22    23   ar
    19    23    24    1
    20    23    25   ar
    21     6     7   ar
    22     7     8   ar
    23    13    14   ar
    24    14    10   ar
    25     8     3   ar
    26    25    18   ar
    27     1     2    1
@<TRIPOS>MOLECULE
*****
 25 27 0 0 0
SMALL
GASTEIGER

@<TRIPOS>ATOM
      1 N          61.9147   87.9176   11.5018 N.pl3   1  UNL1       -0.2150
      2 H          61.0930   88.1623   11.0179 H       1  UNL1        0.1737
      3 C          64.6717   91.1322   13.0234 C.ar    1  UNL1        0.0562
      4 C          64.4235   89.9045   13.8488 C.ar    1  UNL1        0.0060
      5 C          63.5045   88.8330   13.3416 C.ar    1  UNL1        0.0160
      6 C          62.8337   88.9892   12.0090 C.ar    1  UNL1        0.0648
      7 C          63.0820   90.2168   11.1836 C.ar    1  UNL1        0.0160
      8 C          64.0010   91.2883   11.6909 C.ar    1  UNL1        0.0060
      9 C          68.3307   93.6888   15.8443 C.3     1  UNL1        0.0773
     10 C          67.2726   93.3789   14.8272 C.ar    1  UNL1        0.1812
     11 N          66.7373   94.3265   13.7950 N.ar    1  UNL1       -0.0602
     12 O          65.6979   93.6002   12.9937 O.2     1  UNL1       -0.3328
     13 C          65.5908   92.2037   13.5307 C.ar    1  UNL1        0.2597
     14 N          66.5639   92.0669   14.6639 N.ar    1  UNL1       -0.1911
     15 S          62.2476   86.4733   11.7319 S.O2    1  UNL1        0.0736
     16 O          61.1961   86.0729   10.7399 O.2     1  UNL1       -0.1499
     17 O          63.2991   86.8737   12.7238 O.2     1  UNL1       -0.1499
     18 C          62.5806   85.0289   11.9620 C.ar    1  UNL1        0.1268
     19 C          62.3221   84.4037   13.3008 C.ar    1  UNL1        0.0316
     20 C          62.6551   82.9594   13.5310 C.ar    1  UNL1        0.0599
     21 CL         62.3966   82.3343   14.8698 Cl      1  UNL1       -0.0822
     22 C          63.2465   82.1402   12.4224 C.ar    1  UNL1        0.0229
     23 C          63.5050   82.7654   11.0836 C.ar    1  UNL1        0.0599
     24 CL         64.0964   81.9461    9.9749 Cl      1  UNL1       -0.0822
     25 C          63.1720   84.2097   10.8534 C.ar    1  UNL1        0.0316
@<TRIPOS>BOND
     1     9    10    1
     2    10    11   ar
     3    11    12   ar
     4    12    13   ar
     5    13     3    1
     6     3     4   ar
     7     4     5   ar
     8     5     6   ar
     9     6     1    1
    10     1    15    1
    11    15    16    2
    12    15    17    2
    13    15    18    1
    14    18    19   ar
    15    19    20   ar
    16    20    21    1
    17    20    22   ar
    18    22    23   ar
    19    23    24    1
    20    23    25   ar
    21     6     7   ar
    22     7     8   ar
    23    13    14   ar
    24    14    10   ar
    25     8     3   ar
    26    25    18   ar
    27     1     2    1
@<TRIPOS>MOLECULE
*****
 25 27 0 0 0
SMALL
GASTEIGER

@<TRIPOS>ATOM
      1 N          61.9529   88.0237   11.5188 N.pl3   1  UNL1       -0.2150
      2 H          61.1337   88.2757   11.0343 H       1  UNL1        0.1737
      3 C          64.7188   91.2146   13.0738 C.ar    1  UNL1        0.0562
      4 C          64.4192   90.0078   13.9127 C.ar    1  UNL1        0.0060
      5 C          63.4973   88.9442   13.3944 C.ar    1  UNL1        0.0160
      6 C          62.8749   89.0874   12.0371 C.ar    1  UNL1        0.0648
      7 C          63.1745   90.2942   11.1982 C.ar    1  UNL1        0.0160
      8 C          64.0964   91.3578   11.7166 C.ar    1  UNL1        0.0060
      9 C          68.4557   93.7033   15.8529 C.3     1  UNL1        0.0773
     10 C          67.3584   93.4222   14.8695 C.ar    1  UNL1        0.1812
     11 N          66.7606   94.4080   13.9099 N.ar    1  UNL1       -0.0602
     12 O          65.6991   93.7010   13.1204 O.2     1  UNL1       -0.3328
     13 C          65.6408   92.2783   13.5922 C.ar    1  UNL1        0.2597
     14 N          66.6663   92.1060   14.6731 N.ar    1  UNL1       -0.1911
     15 S          62.2790   86.5763   11.7386 S.O2    1  UNL1        0.0736
     16 O          63.3485   86.9656   12.7156 O.2     1  UNL1       -0.1499
     17 O          61.2095   86.1869   10.7617 O.2     1  UNL1       -0.1499
     18 C          62.6051   85.1287   11.9584 C.ar    1  UNL1        0.1268
     19 C          63.2007   84.3169   10.8466 C.ar    1  UNL1        0.0316
     20 C          63.5268   82.8694   11.0663 C.ar    1  UNL1        0.0599
     21 CL         64.1225   82.0576    9.9545 Cl      1  UNL1       -0.0822
     22 C          63.2573   82.2337   12.3979 C.ar    1  UNL1        0.0229
     23 C          62.6617   83.0455   13.5098 C.ar    1  UNL1        0.0599
     24 CL         62.3922   82.4097   14.8414 Cl      1  UNL1       -0.0822
     25 C          62.3356   84.4930   13.2900 C.ar    1  UNL1        0.0316
@<TRIPOS>BOND
     1     9    10    1
     2    10    11   ar
     3    11    12   ar
     4    12    13   ar
     5    13     3    1
     6     3     4   ar
     7     4     5   ar
     8     5     6   ar
     9     6     1    1
    10     1    15    1
    11    15    16    2
    12    15    17    2
    13    15    18    1
    14    18    19   ar
    15    19    20   ar
    16    20    21    1
    17    20    22   ar
    18    22    23   ar
    19    23    24    1
    20    23    25   ar
    21     6     7   ar
    22     7     8   ar
    23    13    14   ar
    24    14    10   ar
    25     8     3   ar
    26    25    18   ar
    27     1     2    1
@<TRIPOS>MOLECULE
*****
 25 27 0 0 0
SMALL
GASTEIGER

@<TRIPOS>ATOM
      1 N          62.2646   87.2519   12.3754 N.pl3   1  UNL1       -0.2150
      2 H          62.1067   86.5317   13.0277 H       1  UNL1        0.1737
      3 C          64.8003   90.7938   13.5045 C.ar    1  UNL1        0.0562
      4 C          64.8131   89.5600   14.3573 C.ar    1  UNL1        0.0060
      5 C          63.9678   88.3794   13.9810 C.ar    1  UNL1        0.0160
      6 C          63.1098   88.4326   12.7517 C.ar    1  UNL1        0.0648
      7 C          63.0971   89.6665   11.8989 C.ar    1  UNL1        0.0160
      8 C          63.9423   90.8471   12.2753 C.ar    1  UNL1        0.0060
      9 C          68.4031   93.8382   15.8778 C.3     1  UNL1        0.0773
     10 C          67.3016   93.3739   14.9717 C.ar    1  UNL1        0.1812
     11 N          66.5909   94.2089   13.9481 N.ar    1  UNL1       -0.0602
     12 O          65.5675   93.3441   13.2739 O.2     1  UNL1       -0.3328
     13 C          65.6456   91.9745   13.8808 C.ar    1  UNL1        0.2597
     14 N          66.7173   91.9930   14.9301 N.ar    1  UNL1       -0.1911
     15 S          61.6599   87.1687   11.0052 S.O2    1  UNL1        0.0736
     16 O          60.5061   88.0107   11.4632 O.2     1  UNL1       -0.1499
     17 O          62.8137   86.3267   10.5472 O.2     1  UNL1       -0.1499
     18 C          61.0553   87.0855    9.6350 C.ar    1  UNL1        0.1268
     19 C          61.2799   85.8674    8.7888 C.ar    1  UNL1        0.0316
     20 C          60.6753   85.7841    7.4186 C.ar    1  UNL1        0.0599
     21 CL         60.9000   84.5661    6.5725 Cl      1  UNL1       -0.0822
     22 C          59.8461   86.9189    6.8946 C.ar    1  UNL1        0.0229
     23 C          59.6214   88.1369    7.7407 C.ar    1  UNL1        0.0599
     24 CL         58.7920   89.2716    7.2166 Cl      1  UNL1       -0.0822
     25 C          60.2260   88.2202    9.1109 C.ar    1  UNL1        0.0316
@<TRIPOS>BOND
     1     9    10    1
     2    10    11   ar
     3    11    12   ar
     4    12    13   ar
     5    13     3    1
     6     3     4   ar
     7     4     5   ar
     8     5     6   ar
     9     6     1    1
    10     1    15    1
    11    15    16    2
    12    15    17    2
    13    15    18    1
    14    18    19   ar
    15    19    20   ar
    16    20    21    1
    17    20    22   ar
    18    22    23   ar
    19    23    24    1
    20    23    25   ar
    21     6     7   ar
    22     7     8   ar
    23    13    14   ar
    24    14    10   ar
    25     8     3   ar
    26    25    18   ar
    27     1     2    1
@<TRIPOS>MOLECULE
*****
 25 27 0 0 0
SMALL
GASTEIGER

@<TRIPOS>ATOM
      1 N          72.9017   80.5155   11.7835 N.pl3   1  UNL1       -0.2150
      2 H          73.3729   81.2463   12.2451 H       1  UNL1        0.1737
      3 C          71.1269   77.1295   14.1575 C.ar    1  UNL1        0.0562
      4 C          70.7349   77.3260   12.7230 C.ar    1  UNL1        0.0060
      5 C          71.3265   78.4546   11.9317 C.ar    1  UNL1        0.0160
      6 C          72.3101   79.3868   12.5749 C.ar    1  UNL1        0.0648
      7 C          72.7021   79.1903   14.0094 C.ar    1  UNL1        0.0160
      8 C          72.1105   78.0617   14.8006 C.ar    1  UNL1        0.0060
      9 C          70.6175   72.6531   16.9112 C.3     1  UNL1        0.0773
     10 C          70.3011   73.9433   16.2146 C.ar    1  UNL1        0.1812
     11 N          68.9486   74.5849   16.1186 N.ar    1  UNL1       -0.0602
     12 O          69.0934   75.8566   15.3363 O.2     1  UNL1       -0.3328
     13 C          70.5353   76.0009   14.9488 C.ar    1  UNL1        0.2597
     14 N          71.2817   74.8184   15.4916 N.ar    1  UNL1       -0.1911
     15 S          72.7753   80.5305   10.2890 S.O2    1  UNL1        0.0736
     16 O          71.9194   81.7594   10.3737 O.2     1  UNL1       -0.1499
     17 O          73.6313   79.3017   10.2042 O.2     1  UNL1       -0.1499
     18 C          72.6490   80.5456    8.7943 C.ar    1  UNL1        0.1268
     19 C          72.9469   79.3060    8.0040 C.ar    1  UNL1        0.0316
     20 C          72.8206   79.3210    6.5094 C.ar    1  UNL1        0.0599
     21 CL         73.1185   78.0814    5.7191 Cl      1  UNL1       -0.0822
     22 C          72.3964   80.5756    5.8052 C.ar    1  UNL1        0.0229
     23 C          72.0985   81.8152    6.5955 C.ar    1  UNL1        0.0599
     24 CL         71.6743   83.0698    5.8912 Cl      1  UNL1       -0.0822
     25 C          72.2248   81.8002    8.0901 C.ar    1  UNL1        0.0316
@<TRIPOS>BOND
     1     9    10    1
     2    10    11   ar
     3    11    12   ar
     4    12    13   ar
     5    13     3    1
     6     3     4   ar
     7     4     5   ar
     8     5     6   ar
     9     6     1    1
    10     1    15    1
    11    15    16    2
    12    15    17    2
    13    15    18    1
    14    18    19   ar
    15    19    20   ar
    16    20    21    1
    17    20    22   ar
    18    22    23   ar
    19    23    24    1
    20    23    25   ar
    21     6     7   ar
    22     7     8   ar
    23    13    14   ar
    24    14    10   ar
    25     8     3   ar
    26    25    18   ar
    27     1     2    1
