@<TRIPOS>MOLECULE
*****
 35 39 0 0 0
SMALL
GASTEIGER

@<TRIPOS>ATOM
      1 C          62.7184   86.7670   11.9338 C.2     1  UNL1        0.2506
      2 O          63.5079   87.4087   13.0359 O.2     1  UNL1       -0.2699
      3 N          61.7315   87.5781   11.1477 N.am    1  UNL1       -0.2724
      4 C          60.9419   86.9364   10.0455 C.3     1  UNL1        0.1231
      5 C          59.9550   87.7476    9.2595 C.3     1  UNL1        0.1351
      6 C          59.1654   87.1058    8.1573 C.3     1  UNL1        0.0339
      7 O          59.7576   89.2005    9.5756 O.3     1  UNL1       -0.3527
      8 C          60.5471   89.8423   10.6777 C.3     1  UNL1        0.1621
      9 C          61.5341   89.0311   11.4638 C.3     1  UNL1        0.1096
     10 C          63.5080   80.9551   10.6694 C.3     1  UNL1        0.0307
     11 C          63.3106   82.4081   10.9855 C.ar    1  UNL1       -0.0243
     12 C          63.1111   83.3968    9.8753 C.ar    1  UNL1       -0.0043
     13 C          62.9137   84.8497   10.1914 C.ar    1  UNL1        0.0057
     14 C          62.9158   85.3140   11.6177 C.ar    1  UNL1        0.0726
     15 C          63.1154   84.3253   12.7279 C.ar    1  UNL1        0.1029
     16 C          63.3128   82.8723   12.4118 C.ar    1  UNL1       -0.0062
     17 C          63.5123   81.8836   13.5221 C.3     1  UNL1        0.0323
     18 N          63.1175   84.7895   14.1543 N.ar    1  UNL1       -0.1480
     19 N          61.9249   84.8559   15.0617 N.ar    1  UNL1       -0.1447
     20 C          62.3829   85.3763   16.3919 C.ar    1  UNL1        0.1446
     21 C          63.8586   85.6315   16.3066 C.ar    1  UNL1        0.1446
     22 N          64.3126   85.2689   14.9237 N.ar    1  UNL1       -0.1447
     23 C          62.3236   89.6729   12.5660 C.3     1  UNL1        0.0487
     24 C          63.4391   90.6199   12.2362 C.ar    1  UNL1       -0.0203
     25 C          63.5171   91.2413   10.8732 C.ar    1  UNL1       -0.0042
     26 C          64.6326   92.1883   10.5434 C.ar    1  UNL1       -0.0002
     27 C          65.6702   92.5139   11.5766 C.ar    1  UNL1        0.0030
     28 C          65.5922   91.8924   12.9395 C.ar    1  UNL1        0.0355
     29 C          64.4767   90.9454   13.2693 C.ar    1  UNL1       -0.0012
     30 C          66.6298   92.2180   13.9728 C.ar    1  UNL1        0.1622
     31 N          66.2282   92.4055   15.4058 N.ar    1  UNL1       -0.2250
     32 C          67.2657   92.7310   16.4390 C.ar    1  UNL1        0.1022
     33 C          68.7048   92.8691   16.0392 C.ar    1  UNL1        0.0414
     34 C          69.1065   92.6816   14.6062 C.ar    1  UNL1        0.1022
     35 N          68.0689   92.3560   13.5730 N.ar    1  UNL1       -0.2250
@<TRIPOS>BOND
     1    10    11    1
     2    11    12   ar
     3    12    13   ar
     4    13    14   ar
     5    14     1    1
     6     1     2    2
     7     1     3   am
     8     3     4    1
     9     4     5    1
    10     5     6    1
    11     5     7    1
    12     7     8    1
    13     8     9    1
    14     9    23    1
    15    23    24    1
    16    24    25   ar
    17    25    26   ar
    18    26    27   ar
    19    27    28   ar
    20    28    30    1
    21    30    31   ar
    22    31    32   ar
    23    32    33   ar
    24    33    34   ar
    25    34    35   ar
    26    28    29   ar
    27    14    15   ar
    28    15    18    1
    29    18    19   ar
    30    19    20   ar
    31    20    21   ar
    32    21    22   ar
    33    15    16   ar
    34    16    17    1
    35    16    11   ar
    36     9     3    1
    37    29    24   ar
    38    22    18   ar
    39    35    30   ar
@<TRIPOS>MOLECULE
*****
 35 39 0 0 0
SMALL
GASTEIGER

@<TRIPOS>ATOM
      1 C          63.1049   87.1768   12.5957 C.2     1  UNL1        0.2506
      2 O          63.7706   87.5831   13.8770 O.2     1  UNL1       -0.2699
      3 N          62.4314   88.2087   11.7405 N.am    1  UNL1       -0.2724
      4 C          61.7656   87.8025   10.4591 C.3     1  UNL1        0.1231
      5 C          61.0921   88.8344    9.6039 C.3     1  UNL1        0.1351
      6 C          60.4264   88.4281    8.3225 C.3     1  UNL1        0.0339
      7 O          61.0843   90.2726   10.0299 O.3     1  UNL1       -0.3527
      8 C          61.7500   90.6789   11.3112 C.3     1  UNL1        0.1621
      9 C          62.4236   89.6469   12.1665 C.3     1  UNL1        0.1096
     10 C          63.1361   81.4240   10.8916 C.3     1  UNL1        0.0307
     11 C          63.1283   82.8622   11.3176 C.ar    1  UNL1       -0.0243
     12 C          63.1562   83.9503   10.2855 C.ar    1  UNL1       -0.0043
     13 C          63.1484   85.3885   10.7116 C.ar    1  UNL1        0.0057
     14 C          63.1127   85.7386   12.1697 C.ar    1  UNL1        0.0726
     15 C          63.0848   84.6505   13.2017 C.ar    1  UNL1        0.1029
     16 C          63.0926   83.2123   12.7757 C.ar    1  UNL1       -0.0062
     17 C          63.0647   82.1242   13.8079 C.3     1  UNL1        0.0323
     18 N          63.0491   85.0006   14.6599 N.ar    1  UNL1       -0.1480
     19 N          64.2342   85.3407   15.5143 N.ar    1  UNL1       -0.1447
     20 C          63.7396   85.6223   16.9021 C.ar    1  UNL1        0.1446
     21 C          62.2488   85.4562   16.9055 C.ar    1  UNL1        0.1446
     22 N          61.8221   85.0719   15.5198 N.ar    1  UNL1       -0.1447
     23 C          63.0893   90.0532   13.4478 C.3     1  UNL1        0.0487
     24 C          64.4064   90.7702   13.4142 C.ar    1  UNL1       -0.0203
     25 C          65.3878   90.5889   14.5339 C.ar    1  UNL1       -0.0042
     26 C          66.7049   91.3059   14.5002 C.ar    1  UNL1       -0.0002
     27 C          67.0406   92.2042   13.3469 C.ar    1  UNL1        0.0030
     28 C          66.0592   92.3855   12.2271 C.ar    1  UNL1        0.0355
     29 C          64.7421   91.6685   12.2608 C.ar    1  UNL1       -0.0012
     30 C          66.3948   93.2838   11.0737 C.ar    1  UNL1        0.1622
     31 N          65.6183   94.5489   10.8576 N.ar    1  UNL1       -0.2250
     32 C          65.9539   95.4472    9.7042 C.ar    1  UNL1        0.1022
     33 C          67.0661   95.0805    8.7668 C.ar    1  UNL1        0.0414
     34 C          67.8426   93.8155    8.9829 C.ar    1  UNL1        0.1022
     35 N          67.5070   92.9171   10.1363 N.ar    1  UNL1       -0.2250
@<TRIPOS>BOND
     1    10    11    1
     2    11    12   ar
     3    12    13   ar
     4    13    14   ar
     5    14     1    1
     6     1     2    2
     7     1     3   am
     8     3     4    1
     9     4     5    1
    10     5     6    1
    11     5     7    1
    12     7     8    1
    13     8     9    1
    14     9    23    1
    15    23    24    1
    16    24    25   ar
    17    25    26   ar
    18    26    27   ar
    19    27    28   ar
    20    28    30    1
    21    30    31   ar
    22    31    32   ar
    23    32    33   ar
    24    33    34   ar
    25    34    35   ar
    26    28    29   ar
    27    14    15   ar
    28    15    18    1
    29    18    19   ar
    30    19    20   ar
    31    20    21   ar
    32    21    22   ar
    33    15    16   ar
    34    16    17    1
    35    16    11   ar
    36     9     3    1
    37    29    24   ar
    38    22    18   ar
    39    35    30   ar
@<TRIPOS>MOLECULE
*****
 35 39 0 0 0
SMALL
GASTEIGER

@<TRIPOS>ATOM
      1 C          62.7712   88.4718   11.6330 C.2     1  UNL1        0.2506
      2 O          62.7242   89.9710   11.6181 O.2     1  UNL1       -0.2699
      3 N          63.3873   87.7524   12.7960 N.am    1  UNL1       -0.2724
      4 C          63.4344   86.2531   12.8110 C.3     1  UNL1        0.1231
      5 C          64.0505   85.5336   13.9740 C.3     1  UNL1        0.1351
      6 C          64.0975   84.0344   13.9890 C.3     1  UNL1        0.0339
      7 O          64.6195   86.3133   15.1222 O.3     1  UNL1       -0.3527
      8 C          64.5725   87.8125   15.1073 C.3     1  UNL1        0.1621
      9 C          63.9564   88.5320   13.9442 C.3     1  UNL1        0.1096
     10 C          60.4948   85.3531    7.0404 C.3     1  UNL1        0.0307
     11 C          61.0639   86.1328    8.1886 C.ar    1  UNL1       -0.0243
     12 C          62.4854   85.9122    8.6136 C.ar    1  UNL1       -0.0043
     13 C          63.0545   86.6919    9.7618 C.ar    1  UNL1        0.0057
     14 C          62.2021   87.6922   10.4849 C.ar    1  UNL1        0.0726
     15 C          60.7806   87.9127   10.0598 C.ar    1  UNL1        0.1029
     16 C          60.2116   87.1331    8.9116 C.ar    1  UNL1       -0.0062
     17 C          58.7900   87.3537    8.4866 C.3     1  UNL1        0.0323
     18 N          59.9282   88.9130   10.7829 N.ar    1  UNL1       -0.1480
     19 N          59.1278   88.6552   12.0250 N.ar    1  UNL1       -0.1447
     20 C          58.4314   89.9295   12.4006 C.ar    1  UNL1        0.1446
     21 C          58.8014   90.9750   11.3906 C.ar    1  UNL1        0.1446
     22 N          59.7265   90.3468   10.3908 N.ar    1  UNL1       -0.1447
     23 C          63.9094   90.0312   13.9293 C.3     1  UNL1        0.0487
     24 C          65.1829   90.8209   13.8617 C.ar    1  UNL1       -0.0203
     25 C          66.1457   90.7912   15.0114 C.ar    1  UNL1       -0.0042
     26 C          67.4192   91.5809   14.9438 C.ar    1  UNL1       -0.0002
     27 C          67.7299   92.4003   13.7264 C.ar    1  UNL1        0.0030
     28 C          66.7670   92.4300   12.5766 C.ar    1  UNL1        0.0355
     29 C          65.4935   91.6403   12.6443 C.ar    1  UNL1       -0.0012
     30 C          67.0776   93.2494   11.3592 C.ar    1  UNL1        0.1622
     31 N          67.8276   92.6363   10.2139 N.ar    1  UNL1       -0.2250
     32 C          68.1383   93.4557    8.9965 C.ar    1  UNL1        0.1022
     33 C          67.6989   94.8881    8.9243 C.ar    1  UNL1        0.0414
     34 C          66.9489   95.5011   10.0696 C.ar    1  UNL1        0.1022
     35 N          66.6383   94.6817   11.2870 N.ar    1  UNL1       -0.2250
@<TRIPOS>BOND
     1    10    11    1
     2    11    12   ar
     3    12    13   ar
     4    13    14   ar
     5    14     1    1
     6     1     2    2
     7     1     3   am
     8     3     4    1
     9     4     5    1
    10     5     6    1
    11     5     7    1
    12     7     8    1
    13     8     9    1
    14     9    23    1
    15    23    24    1
    16    24    25   ar
    17    25    26   ar
    18    26    27   ar
    19    27    28   ar
    20    28    30    1
    21    30    31   ar
    22    31    32   ar
    23    32    33   ar
    24    33    34   ar
    25    34    35   ar
    26    28    29   ar
    27    14    15   ar
    28    15    18    1
    29    18    19   ar
    30    19    20   ar
    31    20    21   ar
    32    21    22   ar
    33    15    16   ar
    34    16    17    1
    35    16    11   ar
    36     9     3    1
    37    29    24   ar
    38    22    18   ar
    39    35    30   ar
@<TRIPOS>MOLECULE
*****
 35 39 0 0 0
SMALL
GASTEIGER

@<TRIPOS>ATOM
      1 C          63.7197   87.3775   13.5924 C.2     1  UNL1        0.2506
      2 O          63.9179   88.2563   12.3930 O.2     1  UNL1       -0.2699
      3 N          63.4818   87.9908   14.9404 N.am    1  UNL1       -0.2724
      4 C          63.2836   87.1119   16.1398 C.3     1  UNL1        0.1231
      5 C          63.0457   87.7252   17.4878 C.3     1  UNL1        0.1351
      6 C          62.8475   86.8464   18.6872 C.3     1  UNL1        0.0339
      7 O          63.0058   89.2173   17.6365 O.3     1  UNL1       -0.3527
      8 C          63.2040   90.0961   16.4372 C.3     1  UNL1        0.1621
      9 C          63.4419   89.4828   15.0891 C.3     1  UNL1        0.1096
     10 C          63.8791   81.4092   12.9975 C.3     1  UNL1        0.0307
     11 C          63.8393   82.9012   13.1462 C.ar    1  UNL1       -0.0243
     12 C          64.5960   83.5646   14.2585 C.ar    1  UNL1       -0.0043
     13 C          64.5562   85.0567   14.4072 C.ar    1  UNL1        0.0057
     14 C          63.7596   85.8854   13.4436 C.ar    1  UNL1        0.0726
     15 C          63.0028   85.2221   12.3313 C.ar    1  UNL1        0.1029
     16 C          63.0427   83.7300   12.1826 C.ar    1  UNL1       -0.0062
     17 C          62.2859   83.0667   11.0703 C.3     1  UNL1        0.0323
     18 N          62.2062   86.0508   11.3677 N.ar    1  UNL1       -0.1480
     19 N          60.9526   86.8109   11.6853 N.ar    1  UNL1       -0.1447
     20 C          60.4948   87.4948   10.4312 C.ar    1  UNL1        0.1446
     21 C          61.4656   87.1574    9.3385 C.ar    1  UNL1        0.1446
     22 N          62.5232   86.2650    9.9173 N.ar    1  UNL1       -0.1447
     23 C          63.6400   90.3616   13.8898 C.3     1  UNL1        0.0487
     24 C          64.9214   91.1231   13.7214 C.ar    1  UNL1       -0.0203
     25 C          66.0146   90.9860   14.7392 C.ar    1  UNL1       -0.0042
     26 C          67.2959   91.7475   14.5708 C.ar    1  UNL1       -0.0002
     27 C          67.4840   92.6461   13.3846 C.ar    1  UNL1        0.0030
     28 C          66.3908   92.7832   12.3668 C.ar    1  UNL1        0.0355
     29 C          65.1094   92.0217   12.5352 C.ar    1  UNL1       -0.0012
     30 C          66.5788   93.6818   11.1805 C.ar    1  UNL1        0.1622
     31 N          67.5701   93.3194   10.1147 N.ar    1  UNL1       -0.2250
     32 C          67.7582   94.2179    8.9285 C.ar    1  UNL1        0.1022
     33 C          66.9549   95.4790    8.8080 C.ar    1  UNL1        0.0414
     34 C          65.9636   95.8415    9.8738 C.ar    1  UNL1        0.1022
     35 N          65.7756   94.9429   11.0601 N.ar    1  UNL1       -0.2250
@<TRIPOS>BOND
     1    10    11    1
     2    11    12   ar
     3    12    13   ar
     4    13    14   ar
     5    14     1    1
     6     1     2    2
     7     1     3   am
     8     3     4    1
     9     4     5    1
    10     5     6    1
    11     5     7    1
    12     7     8    1
    13     8     9    1
    14     9    23    1
    15    23    24    1
    16    24    25   ar
    17    25    26   ar
    18    26    27   ar
    19    27    28   ar
    20    28    30    1
    21    30    31   ar
    22    31    32   ar
    23    32    33   ar
    24    33    34   ar
    25    34    35   ar
    26    28    29   ar
    27    14    15   ar
    28    15    18    1
    29    18    19   ar
    30    19    20   ar
    31    20    21   ar
    32    21    22   ar
    33    15    16   ar
    34    16    17    1
    35    16    11   ar
    36     9     3    1
    37    29    24   ar
    38    22    18   ar
    39    35    30   ar
