@<TRIPOS>MOLECULE
*****
 35 38 0 0 0
SMALL
GASTEIGER

@<TRIPOS>ATOM
      1 C          62.8419   89.7442   13.0861 C.3     1  UNL1        0.1139
      2 C          63.6524   90.8046   12.4015 C.ar    1  UNL1       -0.0029
      3 C          64.6541   91.6035   13.1815 C.ar    1  UNL1       -0.0026
      4 C          65.4645   92.6638   12.4968 C.ar    1  UNL1       -0.0003
      5 C          65.2733   92.9253   11.0322 C.ar    1  UNL1       -0.0000
      6 C          64.2716   92.1265   10.2523 C.ar    1  UNL1       -0.0003
      7 C          63.4611   91.0661   10.9369 C.ar    1  UNL1       -0.0026
      8 C          66.0838   93.9858   10.3476 C.ar    1  UNL1       -0.0000
      9 C          65.7731   95.4346   10.5805 C.ar    1  UNL1       -0.0000
     10 C          66.5836   96.4949    9.8959 C.ar    1  UNL1        0.0000
     11 C          67.7048   96.1064    8.9784 C.ar    1  UNL1        0.0000
     12 C          68.0155   94.6576    8.7454 C.ar    1  UNL1        0.0000
     13 C          67.2050   93.5973    9.4300 C.ar    1  UNL1       -0.0000
     14 C          63.8006   87.4241   13.7552 C.2     1  UNL1        0.2461
     15 O          63.4735   86.8952   12.3901 O.2     1  UNL1       -0.2730
     16 N          63.4848   88.8485   14.1032 N.am    1  UNL1       -0.2729
     17 C          63.8119   89.3773   15.4683 C.3     1  UNL1        0.1152
     18 C          64.4436   86.5284   14.7722 C.3     1  UNL1        0.1773
     19 C          63.0959   85.4829   16.7320 C.3     1  UNL1        0.1126
     20 N          63.6743   85.3785   15.3520 N.pl3   1  UNL1       -0.2980
     21 C          63.4835   84.1243   14.5517 C.ar    1  UNL1        0.0491
     22 C          64.4725   83.7572   13.4854 C.ar    1  UNL1        0.0154
     23 C          64.2817   82.5030   12.6851 C.ar    1  UNL1        0.0135
     24 C          63.1019   81.6157   12.9512 C.ar    1  UNL1        0.0683
     25 CL         62.9111   80.3615   12.1510 Cl      1  UNL1       -0.0814
     26 C          62.1128   81.9827   14.0176 C.ar    1  UNL1        0.0694
     27 CL         60.9330   81.0955   14.2837 Cl      1  UNL1       -0.0813
     28 C          62.3037   83.2371   14.8179 C.ar    1  UNL1        0.0268
     29 C          61.3885   89.5795   12.7537 C.3     1  UNL1        0.0968
     30 N          60.9827   88.9961   11.4328 N.3     1  UNL1       -0.2667
     31 C          61.0286   87.5115   11.2227 C.3     1  UNL1        0.1047
     32 C          60.6228   86.9280    9.9018 C.3     1  UNL1        0.1595
     33 O          60.1711   87.8292    8.7909 O.3     1  UNL1       -0.3508
     34 C          60.1252   89.3136    9.0009 C.3     1  UNL1        0.1595
     35 C          60.5310   89.8971   10.3219 C.3     1  UNL1        0.1047
@<TRIPOS>BOND
     1    19    20    1
     2    20    18    1
     3    18    14    1
     4    14    15    2
     5    14    16   am
     6    16    17    1
     7    16     1    1
     8     1    29    1
     9    29    30    1
    10    30    31    1
    11    31    32    1
    12    32    33    1
    13    33    34    1
    14    34    35    1
    15     1     2    1
    16     2     3   ar
    17     3     4   ar
    18     4     5   ar
    19     5     8    1
    20     8     9   ar
    21     9    10   ar
    22    10    11   ar
    23    11    12   ar
    24    12    13   ar
    25     5     6   ar
    26     6     7   ar
    27    20    21    1
    28    21    22   ar
    29    22    23   ar
    30    23    24   ar
    31    24    25    1
    32    24    26   ar
    33    26    27    1
    34    26    28   ar
    35    35    30    1
    36     7     2   ar
    37    28    21   ar
    38    13     8   ar
@<TRIPOS>MOLECULE
*****
 35 38 0 0 0
SMALL
GASTEIGER

@<TRIPOS>ATOM
      1 C          62.8334   89.7433   13.0837 C.3     1  UNL1        0.1139
      2 C          63.6437   90.8055   12.4014 C.ar    1  UNL1       -0.0029
      3 C          64.6419   91.6060   13.1842 C.ar    1  UNL1       -0.0026
      4 C          65.4521   92.6681   12.5020 C.ar    1  UNL1       -0.0003
      5 C          65.2641   92.9297   11.0370 C.ar    1  UNL1       -0.0000
      6 C          64.2659   92.1292   10.2542 C.ar    1  UNL1       -0.0003
      7 C          63.4557   91.0671   10.9364 C.ar    1  UNL1       -0.0026
      8 C          66.0743   93.9919   10.3548 C.ar    1  UNL1       -0.0000
      9 C          67.1939   93.6057    9.4342 C.ar    1  UNL1       -0.0000
     10 C          68.0041   94.6679    8.7521 C.ar    1  UNL1        0.0000
     11 C          67.6947   96.1161    8.9904 C.ar    1  UNL1        0.0000
     12 C          66.5751   96.5023    9.9110 C.ar    1  UNL1        0.0000
     13 C          65.7650   95.4401   10.5931 C.ar    1  UNL1       -0.0000
     14 C          63.7820   87.4174   13.7472 C.2     1  UNL1        0.2461
     15 O          63.4430   86.8903   12.3843 O.2     1  UNL1       -0.2730
     16 N          63.4772   88.8438   14.0968 N.am    1  UNL1       -0.2729
     17 C          63.8161   89.3709   15.4597 C.3     1  UNL1        0.1152
     18 C          64.4257   86.5179   14.7603 C.3     1  UNL1        0.1773
     19 C          63.0681   85.4795   16.7170 C.3     1  UNL1        0.1126
     20 N          63.6549   85.3695   15.3410 N.pl3   1  UNL1       -0.2980
     21 C          63.4708   84.1112   14.5455 C.ar    1  UNL1        0.0491
     22 C          64.4677   83.7399   13.4880 C.ar    1  UNL1        0.0154
     23 C          64.2837   82.4816   12.6926 C.ar    1  UNL1        0.0135
     24 C          63.1027   81.5946   12.9546 C.ar    1  UNL1        0.0683
     25 CL         62.9187   80.3363   12.1591 Cl      1  UNL1       -0.0814
     26 C          62.1058   81.9659   14.0121 C.ar    1  UNL1        0.0694
     27 CL         60.9249   81.0790   14.2741 Cl      1  UNL1       -0.0813
     28 C          62.2899   83.2243   14.8075 C.ar    1  UNL1        0.0268
     29 C          61.3795   89.5807   12.7527 C.3     1  UNL1        0.0968
     30 N          60.9715   89.0009   11.4308 N.3     1  UNL1       -0.2667
     31 C          60.5303   89.9061   10.3189 C.3     1  UNL1        0.1047
     32 C          60.1223   89.3264    8.9970 C.3     1  UNL1        0.1595
     33 O          60.1555   87.8415    8.7870 O.3     1  UNL1       -0.3508
     34 C          60.5966   86.9364    9.8988 C.3     1  UNL1        0.1595
     35 C          61.0046   87.5161   11.2207 C.3     1  UNL1        0.1047
@<TRIPOS>BOND
     1    19    20    1
     2    20    18    1
     3    18    14    1
     4    14    15    2
     5    14    16   am
     6    16    17    1
     7    16     1    1
     8     1    29    1
     9    29    30    1
    10    30    31    1
    11    31    32    1
    12    32    33    1
    13    33    34    1
    14    34    35    1
    15     1     2    1
    16     2     3   ar
    17     3     4   ar
    18     4     5   ar
    19     5     8    1
    20     8     9   ar
    21     9    10   ar
    22    10    11   ar
    23    11    12   ar
    24    12    13   ar
    25     5     6   ar
    26     6     7   ar
    27    20    21    1
    28    21    22   ar
    29    22    23   ar
    30    23    24   ar
    31    24    25    1
    32    24    26   ar
    33    26    27    1
    34    26    28   ar
    35    35    30    1
    36     7     2   ar
    37    28    21   ar
    38    13     8   ar
@<TRIPOS>MOLECULE
*****
 35 38 0 0 0
SMALL
GASTEIGER

@<TRIPOS>ATOM
      1 C          63.5061   90.1198   13.2671 C.3     1  UNL1        0.1139
      2 C          63.0934   89.2010   12.1555 C.ar    1  UNL1       -0.0029
      3 C          63.1097   87.7158   12.3649 C.ar    1  UNL1       -0.0026
      4 C          62.6970   86.7972   11.2533 C.ar    1  UNL1       -0.0003
      5 C          62.2679   87.3637    9.9323 C.ar    1  UNL1       -0.0000
      6 C          62.2516   88.8489    9.7229 C.ar    1  UNL1       -0.0003
      7 C          62.6643   89.7675   10.8345 C.ar    1  UNL1       -0.0026
      8 C          61.8552   86.4449    8.8207 C.ar    1  UNL1       -0.0000
      9 C          60.4442   86.4692    8.3125 C.ar    1  UNL1       -0.0000
     10 C          60.0315   85.5505    7.2009 C.ar    1  UNL1        0.0000
     11 C          61.0299   84.6074    6.5976 C.ar    1  UNL1        0.0000
     12 C          62.4409   84.5831    7.1059 C.ar    1  UNL1        0.0000
     13 C          62.8536   85.5019    8.2174 C.ar    1  UNL1       -0.0000
     14 C          62.8845   89.1894   15.6118 C.2     1  UNL1        0.2461
     15 O          61.4298   89.3909   15.3061 O.2     1  UNL1       -0.2730
     16 N          63.9226   89.5538   14.5923 N.am    1  UNL1       -0.2729
     17 C          65.3773   89.3523   14.8979 C.3     1  UNL1        0.1152
     18 C          63.3010   88.6234   16.9370 C.3     1  UNL1        0.1773
     19 C          62.5343   86.7416   18.5560 C.3     1  UNL1        0.1126
     20 N          63.0913   87.1672   17.2299 N.pl3   1  UNL1       -0.2980
     21 C          63.4387   86.1368   16.1967 C.ar    1  UNL1        0.0491
     22 C          64.7056   86.2668   15.4042 C.ar    1  UNL1        0.0154
     23 C          65.0530   85.2364   14.3710 C.ar    1  UNL1        0.0135
     24 C          64.1336   84.0759   14.1303 C.ar    1  UNL1        0.0683
     25 CL         64.4810   83.0455   13.0972 Cl      1  UNL1       -0.0814
     26 C          62.8667   83.9459   14.9229 C.ar    1  UNL1        0.0694
     27 CL         61.9472   82.7854   14.6823 Cl      1  UNL1       -0.0813
     28 C          62.5193   84.9764   15.9561 C.ar    1  UNL1        0.0268
     29 C          63.5024   91.6045   13.0534 C.3     1  UNL1        0.0968
     30 N          64.7398   92.2945   12.5610 N.3     1  UNL1       -0.2667
     31 C          64.9337   92.5290   11.0921 C.3     1  UNL1        0.1047
     32 C          66.1712   93.2190   10.5996 C.3     1  UNL1        0.1595
     33 O          67.2148   93.6745   11.5761 O.3     1  UNL1       -0.3508
     34 C          67.0210   93.4400   13.0449 C.3     1  UNL1        0.1595
     35 C          65.7835   92.7500   13.5373 C.3     1  UNL1        0.1047
@<TRIPOS>BOND
     1    19    20    1
     2    20    18    1
     3    18    14    1
     4    14    15    2
     5    14    16   am
     6    16    17    1
     7    16     1    1
     8     1    29    1
     9    29    30    1
    10    30    31    1
    11    31    32    1
    12    32    33    1
    13    33    34    1
    14    34    35    1
    15     1     2    1
    16     2     3   ar
    17     3     4   ar
    18     4     5   ar
    19     5     8    1
    20     8     9   ar
    21     9    10   ar
    22    10    11   ar
    23    11    12   ar
    24    12    13   ar
    25     5     6   ar
    26     6     7   ar
    27    20    21    1
    28    21    22   ar
    29    22    23   ar
    30    23    24   ar
    31    24    25    1
    32    24    26   ar
    33    26    27    1
    34    26    28   ar
    35    35    30    1
    36     7     2   ar
    37    28    21   ar
    38    13     8   ar
@<TRIPOS>MOLECULE
*****
 35 38 0 0 0
SMALL
GASTEIGER

@<TRIPOS>ATOM
      1 C          62.6865   89.3274   12.1983 C.3     1  UNL1        0.1139
      2 C          63.5018   90.5214   11.7985 C.ar    1  UNL1       -0.0029
      3 C          63.3853   91.0784   10.4107 C.ar    1  UNL1       -0.0026
      4 C          64.2005   92.2724   10.0109 C.ar    1  UNL1       -0.0003
      5 C          65.1322   92.9093   10.9990 C.ar    1  UNL1       -0.0000
      6 C          65.2486   92.3524   12.3869 C.ar    1  UNL1       -0.0003
      7 C          64.4334   91.1584   12.7866 C.ar    1  UNL1       -0.0026
      8 C          65.9474   94.1034   10.5992 C.ar    1  UNL1       -0.0000
      9 C          65.7785   95.4044   11.3264 C.ar    1  UNL1       -0.0000
     10 C          66.5937   96.5983   10.9265 C.ar    1  UNL1        0.0000
     11 C          67.5778   96.4912    9.7996 C.ar    1  UNL1        0.0000
     12 C          67.7467   95.1902    9.0724 C.ar    1  UNL1        0.0000
     13 C          66.9315   93.9963    9.4722 C.ar    1  UNL1       -0.0000
     14 C          63.9055   88.2338   14.2153 C.2     1  UNL1        0.2461
     15 O          63.7888   89.5178   14.9820 O.2     1  UNL1       -0.2730
     16 N          63.3543   88.1386   12.8235 N.am    1  UNL1       -0.2729
     17 C          63.4709   86.8546   12.0568 C.3     1  UNL1        0.1152
     18 C          64.5733   87.0450   14.8404 C.3     1  UNL1        0.1773
     19 C          63.2028   86.2378   16.8949 C.3     1  UNL1        0.1126
     20 N          63.7481   85.9921   15.5193 N.pl3   1  UNL1       -0.2980
     21 C          63.4683   84.6936   14.8225 C.ar    1  UNL1        0.0491
     22 C          62.4290   83.7590   15.3669 C.ar    1  UNL1        0.0154
     23 C          62.1492   82.4605   14.6701 C.ar    1  UNL1        0.0135
     24 C          62.9088   82.0965   13.4289 C.ar    1  UNL1        0.0683
     25 CL         62.6290   80.7980   12.7321 Cl      1  UNL1       -0.0814
     26 C          63.9481   83.0310   12.8845 C.ar    1  UNL1        0.0694
     27 CL         64.7077   82.6671   11.6433 Cl      1  UNL1       -0.0813
     28 C          64.2279   84.3296   13.5813 C.ar    1  UNL1        0.0268
     29 C          61.2036   89.3222   11.9730 C.3     1  UNL1        0.0968
     30 N          60.6429   88.8031   10.6822 N.3     1  UNL1       -0.2667
     31 C          60.2576   89.7600    9.5932 C.3     1  UNL1        0.1047
     32 C          59.6969   89.2408    8.3024 C.3     1  UNL1        0.1595
     33 O          59.5216   87.7648    8.1006 O.3     1  UNL1       -0.3508
     34 C          59.9069   86.8080    9.1896 C.3     1  UNL1        0.1595
     35 C          60.4675   87.3271   10.4804 C.3     1  UNL1        0.1047
@<TRIPOS>BOND
     1    19    20    1
     2    20    18    1
     3    18    14    1
     4    14    15    2
     5    14    16   am
     6    16    17    1
     7    16     1    1
     8     1    29    1
     9    29    30    1
    10    30    31    1
    11    31    32    1
    12    32    33    1
    13    33    34    1
    14    34    35    1
    15     1     2    1
    16     2     3   ar
    17     3     4   ar
    18     4     5   ar
    19     5     8    1
    20     8     9   ar
    21     9    10   ar
    22    10    11   ar
    23    11    12   ar
    24    12    13   ar
    25     5     6   ar
    26     6     7   ar
    27    20    21    1
    28    21    22   ar
    29    22    23   ar
    30    23    24   ar
    31    24    25    1
    32    24    26   ar
    33    26    27    1
    34    26    28   ar
    35    35    30    1
    36     7     2   ar
    37    28    21   ar
    38    13     8   ar
@<TRIPOS>MOLECULE
*****
 35 38 0 0 0
SMALL
GASTEIGER

@<TRIPOS>ATOM
      1 C          63.2977   90.1635   14.1177 C.3     1  UNL1        0.1139
      2 C          62.5476   89.7852   12.8750 C.ar    1  UNL1       -0.0029
      3 C          63.2809   89.6223   11.5767 C.ar    1  UNL1       -0.0026
      4 C          62.5307   89.2441   10.3340 C.ar    1  UNL1       -0.0003
      5 C          61.0473   89.0288   10.3897 C.ar    1  UNL1       -0.0000
      6 C          60.3140   89.1917   11.6881 C.ar    1  UNL1       -0.0003
      7 C          61.0642   89.5699   12.9307 C.ar    1  UNL1       -0.0026
      8 C          60.2972   88.6505    9.1470 C.ar    1  UNL1       -0.0000
      9 C          59.8236   87.2400    8.9569 C.ar    1  UNL1       -0.0000
     10 C          59.0735   86.8618    7.7142 C.ar    1  UNL1        0.0000
     11 C          58.7970   87.8942    6.6617 C.ar    1  UNL1        0.0000
     12 C          59.2705   89.3047    6.8518 C.ar    1  UNL1        0.0000
     13 C          60.0206   89.6828    8.0945 C.ar    1  UNL1       -0.0000
     14 C          63.9227   87.7567   14.8704 C.2     1  UNL1        0.2461
     15 O          64.1484   87.3677   13.4393 O.2     1  UNL1       -0.2730
     16 N          63.4974   89.1545   15.2096 N.am    1  UNL1       -0.2729
     17 C          63.2718   89.5434   16.6406 C.3     1  UNL1        0.1152
     18 C          64.1224   86.7477   15.9622 C.3     1  UNL1        0.1773
     19 C          62.1335   85.6500   17.2230 C.3     1  UNL1        0.1126
     20 N          63.1526   85.6146   16.1229 N.pl3   1  UNL1       -0.2980
     21 C          63.2020   84.4462   15.1835 C.ar    1  UNL1        0.0491
     22 C          64.3454   84.3038   14.2231 C.ar    1  UNL1        0.0154
     23 C          64.3947   83.1354   13.2838 C.ar    1  UNL1        0.0135
     24 C          63.3006   82.1094   13.3048 C.ar    1  UNL1        0.0683
     25 CL         63.3500   80.9411   12.3654 Cl      1  UNL1       -0.0814
     26 C          62.1572   82.2519   14.2651 C.ar    1  UNL1        0.0694
     27 CL         61.0631   81.2260   14.2862 Cl      1  UNL1       -0.0813
     28 C          62.1079   83.4203   15.2045 C.ar    1  UNL1        0.0268
     29 C          63.8481   91.5506   14.2686 C.3     1  UNL1        0.0968
     30 N          65.1968   91.8878   13.7053 N.3     1  UNL1       -0.2667
     31 C          66.4318   91.6503   14.5230 C.3     1  UNL1        0.1047
     32 C          67.7805   91.9874   13.9597 C.3     1  UNL1        0.1595
     33 O          67.8943   92.5620   12.5787 O.3     1  UNL1       -0.3508
     34 C          66.6593   92.7994   11.7611 C.3     1  UNL1        0.1595
     35 C          65.3106   92.4623   12.3244 C.3     1  UNL1        0.1047
@<TRIPOS>BOND
     1    19    20    1
     2    20    18    1
     3    18    14    1
     4    14    15    2
     5    14    16   am
     6    16    17    1
     7    16     1    1
     8     1    29    1
     9    29    30    1
    10    30    31    1
    11    31    32    1
    12    32    33    1
    13    33    34    1
    14    34    35    1
    15     1     2    1
    16     2     3   ar
    17     3     4   ar
    18     4     5   ar
    19     5     8    1
    20     8     9   ar
    21     9    10   ar
    22    10    11   ar
    23    11    12   ar
    24    12    13   ar
    25     5     6   ar
    26     6     7   ar
    27    20    21    1
    28    21    22   ar
    29    22    23   ar
    30    23    24   ar
    31    24    25    1
    32    24    26   ar
    33    26    27    1
    34    26    28   ar
    35    35    30    1
    36     7     2   ar
    37    28    21   ar
    38    13     8   ar
@<TRIPOS>MOLECULE
*****
 35 38 0 0 0
SMALL
GASTEIGER

@<TRIPOS>ATOM
      1 C          62.8650   90.1063   13.3887 C.3     1  UNL1        0.1139
      2 C          63.6939   91.0817   12.6065 C.ar    1  UNL1       -0.0029
      3 C          64.7912   91.8468   13.2851 C.ar    1  UNL1       -0.0026
      4 C          65.6200   92.8220   12.5029 C.ar    1  UNL1       -0.0003
      5 C          65.3516   93.0322   11.0422 C.ar    1  UNL1       -0.0000
      6 C          64.2543   92.2671   10.3636 C.ar    1  UNL1       -0.0003
      7 C          63.4254   91.2918   11.1458 C.ar    1  UNL1       -0.0026
      8 C          66.1805   94.0075   10.2600 C.ar    1  UNL1       -0.0000
      9 C          65.9332   95.4806   10.3965 C.ar    1  UNL1       -0.0000
     10 C          66.7621   96.4559    9.6143 C.ar    1  UNL1        0.0000
     11 C          67.8383   95.9580    8.6957 C.ar    1  UNL1        0.0000
     12 C          68.0855   94.4848    8.5591 C.ar    1  UNL1        0.0000
     13 C          67.2566   93.5096    9.3413 C.ar    1  UNL1       -0.0000
     14 C          62.0787   88.2494   11.7506 C.2     1  UNL1        0.2461
     15 O          63.5084   87.8985   11.4622 O.2     1  UNL1       -0.2730
     16 N          61.7571   89.3533   12.7138 N.am    1  UNL1       -0.2729
     17 C          60.3274   89.7041   13.0023 C.3     1  UNL1        0.1152
     18 C          60.9708   87.4963   11.0758 C.3     1  UNL1        0.1773
     19 C          60.7410   86.2888    8.7868 C.3     1  UNL1        0.1126
     20 N          61.2895   86.3343   10.1821 N.pl3   1  UNL1       -0.2980
     21 C          62.1567   85.2180   10.6839 C.ar    1  UNL1        0.0491
     22 C          63.1008   84.5230    9.7481 C.ar    1  UNL1        0.0154
     23 C          63.9680   83.4067   10.2499 C.ar    1  UNL1        0.0135
     24 C          63.8911   82.9854   11.6875 C.ar    1  UNL1        0.0683
     25 CL         64.7583   81.8691   12.1893 Cl      1  UNL1       -0.0814
     26 C          62.9471   83.6804   12.6233 C.ar    1  UNL1        0.0694
     27 CL         62.8702   83.2592   14.0608 Cl      1  UNL1       -0.0813
     28 C          62.0799   84.7968   12.1215 C.ar    1  UNL1        0.0268
     29 C          63.1440   89.8841   14.8456 C.3     1  UNL1        0.0968
     30 N          63.4286   88.5013   15.3524 N.3     1  UNL1       -0.2667
     31 C          64.3340   87.5902   14.5776 C.3     1  UNL1        0.1047
     32 C          64.6187   86.2074   15.0844 C.3     1  UNL1        0.1595
     33 O          63.9979   85.7357   16.3659 O.3     1  UNL1       -0.3508
     34 C          63.0926   86.6468   17.1406 C.3     1  UNL1        0.1595
     35 C          62.8079   88.0296   16.6339 C.3     1  UNL1        0.1047
@<TRIPOS>BOND
     1    19    20    1
     2    20    18    1
     3    18    14    1
     4    14    15    2
     5    14    16   am
     6    16    17    1
     7    16     1    1
     8     1    29    1
     9    29    30    1
    10    30    31    1
    11    31    32    1
    12    32    33    1
    13    33    34    1
    14    34    35    1
    15     1     2    1
    16     2     3   ar
    17     3     4   ar
    18     4     5   ar
    19     5     8    1
    20     8     9   ar
    21     9    10   ar
    22    10    11   ar
    23    11    12   ar
    24    12    13   ar
    25     5     6   ar
    26     6     7   ar
    27    20    21    1
    28    21    22   ar
    29    22    23   ar
    30    23    24   ar
    31    24    25    1
    32    24    26   ar
    33    26    27    1
    34    26    28   ar
    35    35    30    1
    36     7     2   ar
    37    28    21   ar
    38    13     8   ar
@<TRIPOS>MOLECULE
*****
 35 38 0 0 0
SMALL
GASTEIGER

@<TRIPOS>ATOM
      1 C          63.5987   89.7901   13.4451 C.3     1  UNL1        0.1139
      2 C          64.2693   90.9251   12.7295 C.ar    1  UNL1       -0.0029
      3 C          63.9281   91.2153   11.2980 C.ar    1  UNL1       -0.0026
      4 C          64.5987   92.3503   10.5824 C.ar    1  UNL1       -0.0003
      5 C          65.6105   93.1950   11.2984 C.ar    1  UNL1       -0.0000
      6 C          65.9518   92.9048   12.7299 C.ar    1  UNL1       -0.0003
      7 C          65.2812   91.7699   13.4454 C.ar    1  UNL1       -0.0026
      8 C          66.2812   94.3301   10.5827 C.ar    1  UNL1       -0.0000
      9 C          66.2022   95.7200   11.1411 C.ar    1  UNL1       -0.0000
     10 C          66.8728   96.8549   10.4255 C.ar    1  UNL1        0.0000
     11 C          67.6223   96.5999    9.1514 C.ar    1  UNL1        0.0000
     12 C          67.7013   95.2100    8.5931 C.ar    1  UNL1        0.0000
     13 C          67.0307   94.0751    9.3087 C.ar    1  UNL1       -0.0000
     14 C          61.3576   89.2009   12.2704 C.2     1  UNL1        0.2461
     15 O          60.8160   90.5542   12.6248 O.2     1  UNL1       -0.2730
     16 N          62.7489   88.8189   12.6805 N.am    1  UNL1       -0.2729
     17 C          63.2904   87.4657   12.3260 C.3     1  UNL1        0.1152
     18 C          60.5077   88.2298   11.5058 C.3     1  UNL1        0.1773
     19 C          59.7095   89.7471    9.5536 C.3     1  UNL1        0.1126
     20 N          60.2613   88.4402   10.0411 N.pl3   1  UNL1       -0.2980
     21 C          60.5666   87.3438    9.0641 C.ar    1  UNL1        0.0491
     22 C          59.5501   86.9543    8.0321 C.ar    1  UNL1        0.0154
     23 C          59.8554   85.8579    7.0551 C.ar    1  UNL1        0.0135
     24 C          61.1773   85.1509    7.1100 C.ar    1  UNL1        0.0683
     25 CL         61.4826   84.0545    6.1330 Cl      1  UNL1       -0.0814
     26 C          62.1938   85.5404    8.1421 C.ar    1  UNL1        0.0694
     27 CL         63.5156   84.8335    8.1971 Cl      1  UNL1       -0.0813
     28 C          61.8884   86.6369    9.1191 C.ar    1  UNL1        0.0268
     29 C          63.7780   89.6262   14.9253 C.3     1  UNL1        0.0968
     30 N          63.6754   88.2650   15.5471 N.3     1  UNL1       -0.2667
     31 C          64.3894   87.1011   14.9261 C.3     1  UNL1        0.1047
     32 C          64.2869   85.7399   15.5479 C.3     1  UNL1        0.1595
     33 O          63.4703   85.5426   16.7907 O.3     1  UNL1       -0.3508
     34 C          62.7563   86.7066   17.4116 C.3     1  UNL1        0.1595
     35 C          62.8589   88.0677   16.7898 C.3     1  UNL1        0.1047
@<TRIPOS>BOND
     1    19    20    1
     2    20    18    1
     3    18    14    1
     4    14    15    2
     5    14    16   am
     6    16    17    1
     7    16     1    1
     8     1    29    1
     9    29    30    1
    10    30    31    1
    11    31    32    1
    12    32    33    1
    13    33    34    1
    14    34    35    1
    15     1     2    1
    16     2     3   ar
    17     3     4   ar
    18     4     5   ar
    19     5     8    1
    20     8     9   ar
    21     9    10   ar
    22    10    11   ar
    23    11    12   ar
    24    12    13   ar
    25     5     6   ar
    26     6     7   ar
    27    20    21    1
    28    21    22   ar
    29    22    23   ar
    30    23    24   ar
    31    24    25    1
    32    24    26   ar
    33    26    27    1
    34    26    28   ar
    35    35    30    1
    36     7     2   ar
    37    28    21   ar
    38    13     8   ar
@<TRIPOS>MOLECULE
*****
 35 38 0 0 0
SMALL
GASTEIGER

@<TRIPOS>ATOM
      1 C          63.8349   90.1323   14.3077 C.3     1  UNL1        0.1139
      2 C          63.0177   89.7061   13.1242 C.ar    1  UNL1       -0.0029
      3 C          63.5422   88.6570   12.1893 C.ar    1  UNL1       -0.0026
      4 C          62.7251   88.2308   11.0059 C.ar    1  UNL1       -0.0003
      5 C          61.3834   88.8538   10.7574 C.ar    1  UNL1       -0.0000
      6 C          60.8588   89.9029   11.6923 C.ar    1  UNL1       -0.0003
      7 C          61.6760   90.3291   12.8757 C.ar    1  UNL1       -0.0026
      8 C          60.5662   88.4275    9.5738 C.ar    1  UNL1       -0.0000
      9 C          60.2479   89.4125    8.4883 C.ar    1  UNL1       -0.0000
     10 C          59.4307   88.9863    7.3049 C.ar    1  UNL1        0.0000
     11 C          58.9319   87.5750    7.2070 C.ar    1  UNL1        0.0000
     12 C          59.2502   86.5900    8.2925 C.ar    1  UNL1        0.0000
     13 C          60.0673   87.0163    9.4760 C.ar    1  UNL1       -0.0000
     14 C          65.0319   92.0502   13.0276 C.2     1  UNL1        0.2461
     15 O          63.8357   92.2011   12.1351 O.2     1  UNL1       -0.2730
     16 N          65.0314   91.0159   14.1139 N.am    1  UNL1       -0.2729
     17 C          66.2276   90.8650   15.0064 C.3     1  UNL1        0.1152
     18 C          66.2285   92.9338   12.8338 C.3     1  UNL1        0.1773
     19 C          68.0412   91.7365   11.4088 C.3     1  UNL1        0.1126
     20 N          67.0357   92.8373   11.5731 N.pl3   1  UNL1       -0.2980
     21 C          66.8372   93.8417   10.4768 C.ar    1  UNL1        0.0491
     22 C          67.7488   93.8416    9.2856 C.ar    1  UNL1        0.0154
     23 C          67.5504   94.8459    8.1893 C.ar    1  UNL1        0.0135
     24 C          66.4404   95.8505    8.2843 C.ar    1  UNL1        0.0683
     25 CL         66.2420   96.8548    7.1880 Cl      1  UNL1       -0.0814
     26 C          65.5289   95.8506    9.4755 C.ar    1  UNL1        0.0694
     27 CL         64.4189   96.8550    9.5705 Cl      1  UNL1       -0.0813
     28 C          65.7273   94.8461   10.5718 C.ar    1  UNL1        0.0268
     29 C          63.4555   89.6750   15.6850 C.3     1  UNL1        0.0968
     30 N          63.4752   88.2135   16.0220 N.3     1  UNL1       -0.2667
     31 C          64.2794   87.2620   15.1865 C.3     1  UNL1        0.1047
     32 C          64.2991   85.8005   15.5235 C.3     1  UNL1        0.1595
     33 O          63.5147   85.2905   16.6960 O.3     1  UNL1       -0.3508
     34 C          62.7106   86.2420   17.5314 C.3     1  UNL1        0.1595
     35 C          62.6909   87.7035   17.1944 C.3     1  UNL1        0.1047
@<TRIPOS>BOND
     1    19    20    1
     2    20    18    1
     3    18    14    1
     4    14    15    2
     5    14    16   am
     6    16    17    1
     7    16     1    1
     8     1    29    1
     9    29    30    1
    10    30    31    1
    11    31    32    1
    12    32    33    1
    13    33    34    1
    14    34    35    1
    15     1     2    1
    16     2     3   ar
    17     3     4   ar
    18     4     5   ar
    19     5     8    1
    20     8     9   ar
    21     9    10   ar
    22    10    11   ar
    23    11    12   ar
    24    12    13   ar
    25     5     6   ar
    26     6     7   ar
    27    20    21    1
    28    21    22   ar
    29    22    23   ar
    30    23    24   ar
    31    24    25    1
    32    24    26   ar
    33    26    27    1
    34    26    28   ar
    35    35    30    1
    36     7     2   ar
    37    28    21   ar
    38    13     8   ar
@<TRIPOS>MOLECULE
*****
 35 38 0 0 0
SMALL
GASTEIGER

@<TRIPOS>ATOM
      1 C          64.0997   88.9972   14.1444 C.3     1  UNL1        0.1139
      2 C          63.2316   88.7767   12.9412 C.ar    1  UNL1       -0.0029
      3 C          63.2116   87.4375   12.2659 C.ar    1  UNL1       -0.0026
      4 C          62.3435   87.2171   11.0628 C.ar    1  UNL1       -0.0003
      5 C          61.4952   88.3359   10.5348 C.ar    1  UNL1       -0.0000
      6 C          61.5152   89.6752   11.2101 C.ar    1  UNL1       -0.0003
      7 C          62.3833   89.8956   12.4132 C.ar    1  UNL1       -0.0026
      8 C          60.6271   88.1155    9.3316 C.ar    1  UNL1       -0.0000
      9 C          60.1812   89.2844    8.5041 C.ar    1  UNL1       -0.0000
     10 C          59.3131   89.0639    7.3009 C.ar    1  UNL1        0.0000
     11 C          58.8908   87.6745    6.9252 C.ar    1  UNL1        0.0000
     12 C          59.3366   86.5056    7.7527 C.ar    1  UNL1        0.0000
     13 C          60.2048   86.7260    8.9559 C.ar    1  UNL1       -0.0000
     14 C          65.0984   91.3678   13.7801 C.2     1  UNL1        0.2461
     15 O          65.5873   90.9534   12.4239 O.2     1  UNL1       -0.2730
     16 N          64.3546   90.3897   14.6403 N.am    1  UNL1       -0.2729
     17 C          63.8657   90.8041   15.9966 C.3     1  UNL1        0.1152
     18 C          65.3533   92.7603   14.2760 C.3     1  UNL1        0.1773
     19 C          67.6369   93.8883   14.7887 C.3     1  UNL1        0.1126
     20 N          66.5644   93.5126   13.8097 N.pl3   1  UNL1       -0.2980
     21 C          66.7029   93.8892   12.3643 C.ar    1  UNL1        0.0491
     22 C          66.1359   95.1868   11.8697 C.ar    1  UNL1        0.0154
     23 C          66.2744   95.5634   10.4244 C.ar    1  UNL1        0.0135
     24 C          66.9798   94.6422    9.4736 C.ar    1  UNL1        0.0683
     25 CL         67.1183   95.0188    8.0283 Cl      1  UNL1       -0.0814
     26 C          67.5468   93.3446    9.9682 C.ar    1  UNL1        0.0694
     27 CL         68.2522   92.4235    9.0175 Cl      1  UNL1       -0.0813
     28 C          67.4083   92.9681   11.4136 C.ar    1  UNL1        0.0268
     29 C          64.7130   87.8252   14.8517 C.3     1  UNL1        0.0968
     30 N          63.8409   86.8588   15.5970 N.3     1  UNL1       -0.2667
     31 C          63.6835   85.4526   15.0990 C.3     1  UNL1        0.1047
     32 C          62.8114   84.4862   15.8443 C.3     1  UNL1        0.1595
     33 O          62.0968   84.9260   17.0877 O.3     1  UNL1       -0.3508
     34 C          62.2542   86.3320   17.5857 C.3     1  UNL1        0.1595
     35 C          63.1263   87.2984   16.8404 C.3     1  UNL1        0.1047
@<TRIPOS>BOND
     1    19    20    1
     2    20    18    1
     3    18    14    1
     4    14    15    2
     5    14    16   am
     6    16    17    1
     7    16     1    1
     8     1    29    1
     9    29    30    1
    10    30    31    1
    11    31    32    1
    12    32    33    1
    13    33    34    1
    14    34    35    1
    15     1     2    1
    16     2     3   ar
    17     3     4   ar
    18     4     5   ar
    19     5     8    1
    20     8     9   ar
    21     9    10   ar
    22    10    11   ar
    23    11    12   ar
    24    12    13   ar
    25     5     6   ar
    26     6     7   ar
    27    20    21    1
    28    21    22   ar
    29    22    23   ar
    30    23    24   ar
    31    24    25    1
    32    24    26   ar
    33    26    27    1
    34    26    28   ar
    35    35    30    1
    36     7     2   ar
    37    28    21   ar
    38    13     8   ar
