@<TRIPOS>MOLECULE
*****
 30 32 0 0 0
SMALL
GASTEIGER

@<TRIPOS>ATOM
      1 N          64.9799   91.9093   11.3529 N.am    1  UNL1       -0.2904
      2 C          64.1172   91.3170   12.4276 C.2     1  UNL1        0.2673
      3 O          64.3990   91.6223   13.8689 O.2     1  UNL1       -0.2684
      4 H          64.7949   91.7090   10.4069 H       1  UNL1        0.1503
      5 C          62.9727   90.4194   12.0609 C.ar    1  UNL1        0.1761
      6 C          62.6261   89.9528   10.6781 C.ar    1  UNL1        0.0673
      7 C          61.4130   89.0759   10.7752 C.ar    1  UNL1        0.1792
      8 O          61.0099   89.0005   12.2181 O.2     1  UNL1       -0.3532
      9 N          61.9738   89.8308   13.0127 N.ar    1  UNL1       -0.0723
     10 C          60.7240   88.3940    9.6305 C.ar    1  UNL1        0.0647
     11 C          60.0379   89.2095    8.5749 C.ar    1  UNL1        0.0054
     12 C          59.3490   88.5276    7.4303 C.ar    1  UNL1        0.0002
     13 C          59.3460   87.0303    7.3412 C.ar    1  UNL1        0.0023
     14 C          60.0320   86.2148    8.3968 C.ar    1  UNL1        0.0297
     15 C          60.7210   86.8967    9.5414 C.ar    1  UNL1        0.1431
     16 F          61.4071   86.0812   10.5971 F       1  UNL1       -0.2041
     17 C          66.1244   92.8069   11.7196 C.3     1  UNL1        0.1945
     18 C          67.4462   92.2152   12.1101 C.2     1  UNL1        0.3370
     19 O          68.5670   92.1603   11.1145 O.2     1  UNL1       -0.2482
     20 O          67.6474   91.6783   13.4962 O.3     1  UNL1       -0.4473
     21 C          68.6435   92.3239   14.4134 C.3     1  UNL1        0.2084
     22 C          66.8463   92.7935   16.2300 C.3     1  UNL1        0.0038
     23 C          68.1706   93.1097   15.6004 C.3     1  UNL1        0.0439
     24 C          69.0220   94.2117   16.1579 C.3     1  UNL1        0.0038
     25 C          65.9471   94.2962   11.6957 C.3     1  UNL1        0.1386
     26 N          66.1669   95.0573   10.4221 N.ar    1  UNL1       -0.3055
     27 C          65.5185   96.3574   10.0488 C.ar    1  UNL1        0.0981
     28 C          66.0247   96.7557    8.6940 C.ar    1  UNL1        0.1193
     29 N          66.9859   95.7017    8.2301 N.ar    1  UNL1       -0.2223
     30 C          67.0737   94.6521    9.2981 C.ar    1  UNL1        0.1787
@<TRIPOS>BOND
     1    22    23    1
     2    23    24    1
     3    23    21    1
     4    21    20    1
     5    20    18    1
     6    18    19    2
     7    18    17    1
     8    17    25    1
     9    25    26    1
    10    26    27   ar
    11    27    28   ar
    12    28    29   ar
    13    29    30   ar
    14    17     1    1
    15     1     2   am
    16     2     3    2
    17     2     5    1
    18     5     6   ar
    19     6     7   ar
    20     7    10    1
    21    10    11   ar
    22    11    12   ar
    23    12    13   ar
    24    13    14   ar
    25    14    15   ar
    26    15    16    1
    27     7     8   ar
    28     8     9   ar
    29    30    26   ar
    30     9     5   ar
    31    15    10   ar
    32     1     4    1
@<TRIPOS>MOLECULE
*****
 30 32 0 0 0
SMALL
GASTEIGER

@<TRIPOS>ATOM
      1 N          62.9462   89.1557   11.3500 N.am    1  UNL1       -0.2904
      2 C          63.1556   90.0181   12.5592 C.2     1  UNL1        0.2673
      3 O          62.4543   89.6910   13.8442 O.2     1  UNL1       -0.2684
      4 H          63.4065   89.3704   10.5066 H       1  UNL1        0.1503
      5 C          64.0662   91.2077   12.4835 C.ar    1  UNL1        0.1761
      6 C          64.5497   91.8695   11.2272 C.ar    1  UNL1        0.0673
      7 C          65.4355   93.0150   11.6181 C.ar    1  UNL1        0.1792
      8 O          65.4996   93.0613   13.1161 O.2     1  UNL1       -0.3532
      9 N          64.6534   91.9443   13.6510 N.ar    1  UNL1       -0.0723
     10 C          66.1346   93.9503   10.6764 C.ar    1  UNL1        0.0647
     11 C          65.7591   95.4021   10.6448 C.ar    1  UNL1        0.0054
     12 C          66.4582   96.3372    9.7031 C.ar    1  UNL1        0.0002
     13 C          67.5328   95.8205    8.7931 C.ar    1  UNL1        0.0023
     14 C          67.9083   94.3687    8.8247 C.ar    1  UNL1        0.0297
     15 C          67.2093   93.4335    9.7664 C.ar    1  UNL1        0.1431
     16 F          67.5848   91.9816    9.7980 F       1  UNL1       -0.2041
     17 C          62.0356   87.9662   11.4257 C.3     1  UNL1        0.1945
     18 C          62.5805   86.6292   11.8325 C.2     1  UNL1        0.3370
     19 O          63.3353   86.4875   13.1211 O.2     1  UNL1       -0.2482
     20 O          62.3707   85.4340   10.9508 O.3     1  UNL1       -0.4473
     21 C          62.4410   84.0524   11.5310 C.3     1  UNL1        0.2084
     22 C          64.3434   83.0203   10.0937 C.3     1  UNL1        0.0038
     23 C          63.7118   83.2616   11.4327 C.3     1  UNL1        0.0439
     24 C          64.3511   82.7120   12.6734 C.3     1  UNL1        0.0038
     25 C          60.5801   88.1136   11.0945 C.3     1  UNL1        0.1386
     26 N          60.1250   88.0445    9.6669 N.ar    1  UNL1       -0.3055
     27 C          59.6461   86.8155    8.9527 C.ar    1  UNL1        0.0981
     28 C          59.2940   87.2037    7.5472 C.ar    1  UNL1        0.1193
     29 N          59.5553   88.6727    7.3928 N.ar    1  UNL1       -0.2223
     30 C          60.0689   89.1923    8.7029 C.ar    1  UNL1        0.1787
@<TRIPOS>BOND
     1    22    23    1
     2    23    24    1
     3    23    21    1
     4    21    20    1
     5    20    18    1
     6    18    19    2
     7    18    17    1
     8    17    25    1
     9    25    26    1
    10    26    27   ar
    11    27    28   ar
    12    28    29   ar
    13    29    30   ar
    14    17     1    1
    15     1     2   am
    16     2     3    2
    17     2     5    1
    18     5     6   ar
    19     6     7   ar
    20     7    10    1
    21    10    11   ar
    22    11    12   ar
    23    12    13   ar
    24    13    14   ar
    25    14    15   ar
    26    15    16    1
    27     7     8   ar
    28     8     9   ar
    29    30    26   ar
    30     9     5   ar
    31    15    10   ar
    32     1     4    1
@<TRIPOS>MOLECULE
*****
 30 32 0 0 0
SMALL
GASTEIGER

@<TRIPOS>ATOM
      1 N          62.6870   89.2664   11.4341 N.am    1  UNL1       -0.2904
      2 C          63.0018   90.0775   12.6560 C.2     1  UNL1        0.2673
      3 O          62.3231   89.7676   13.9572 O.2     1  UNL1       -0.2684
      4 H          63.1325   89.4698   10.5800 H       1  UNL1        0.1503
      5 C          63.9954   91.1985   12.5766 C.ar    1  UNL1        0.1761
      6 C          64.4759   91.8635   11.3209 C.ar    1  UNL1        0.0673
      7 C          65.4603   92.9272   11.7072 C.ar    1  UNL1        0.1792
      8 O          65.5882   92.9197   13.2017 O.2     1  UNL1       -0.3532
      9 N          64.6828   91.8513   13.7391 N.ar    1  UNL1       -0.0723
     10 C          66.1889   93.8386   10.7645 C.ar    1  UNL1        0.0647
     11 C          65.8760   95.3054   10.7473 C.ar    1  UNL1        0.0054
     12 C          66.6046   96.2167    9.8046 C.ar    1  UNL1        0.0002
     13 C          67.6462   95.6611    8.8792 C.ar    1  UNL1        0.0023
     14 C          67.9592   94.1943    8.8964 C.ar    1  UNL1        0.0297
     15 C          67.2306   93.2830    9.8391 C.ar    1  UNL1        0.1431
     16 F          67.5435   91.8161    9.8564 F       1  UNL1       -0.2041
     17 C          61.6935   88.1454   11.5135 C.3     1  UNL1        0.1945
     18 C          60.2258   88.4349   11.4039 C.2     1  UNL1        0.3370
     19 O          59.4702   88.9418   12.5965 O.2     1  UNL1       -0.2482
     20 O          59.5137   88.2177   10.1017 O.3     1  UNL1       -0.4473
     21 C          59.9839   88.9216    8.8632 C.3     1  UNL1        0.2084
     22 C          59.1653   87.0439    7.2650 C.3     1  UNL1        0.0038
     23 C          59.4816   88.4882    7.5179 C.3     1  UNL1        0.0439
     24 C          59.2958   89.4991    6.4254 C.3     1  UNL1        0.0038
     25 C          62.1676   86.7349   11.7024 C.3     1  UNL1        0.1386
     26 N          62.5535   85.9076   10.5123 N.ar    1  UNL1       -0.3055
     27 C          62.4164   86.3133    9.0747 C.ar    1  UNL1        0.0981
     28 C          62.9224   85.1857    8.2246 C.ar    1  UNL1        0.1193
     29 N          63.3721   84.0831    9.1368 N.ar    1  UNL1       -0.2223
     30 C          63.1441   84.5294   10.5506 C.ar    1  UNL1        0.1787
@<TRIPOS>BOND
     1    22    23    1
     2    23    24    1
     3    23    21    1
     4    21    20    1
     5    20    18    1
     6    18    19    2
     7    18    17    1
     8    17    25    1
     9    25    26    1
    10    26    27   ar
    11    27    28   ar
    12    28    29   ar
    13    29    30   ar
    14    17     1    1
    15     1     2   am
    16     2     3    2
    17     2     5    1
    18     5     6   ar
    19     6     7   ar
    20     7    10    1
    21    10    11   ar
    22    11    12   ar
    23    12    13   ar
    24    13    14   ar
    25    14    15   ar
    26    15    16    1
    27     7     8   ar
    28     8     9   ar
    29    30    26   ar
    30     9     5   ar
    31    15    10   ar
    32     1     4    1
@<TRIPOS>MOLECULE
*****
 30 32 0 0 0
SMALL
GASTEIGER

@<TRIPOS>ATOM
      1 N          64.6605   89.1062   13.7755 N.am    1  UNL1       -0.2904
      2 C          64.0000   88.2755   14.8355 C.2     1  UNL1        0.2673
      3 O          63.3275   88.9412   15.9994 O.2     1  UNL1       -0.2684
      4 H          65.1019   88.6692   13.0116 H       1  UNL1        0.1503
      5 C          64.0119   86.7791   14.7317 C.ar    1  UNL1        0.1761
      6 C          63.7011   85.9782   13.5021 C.ar    1  UNL1        0.0673
      7 C          63.8338   84.5251   13.8497 C.ar    1  UNL1        0.1792
      8 O          64.2265   84.4279   15.2941 O.2     1  UNL1       -0.3532
      9 N          64.3366   85.8210   15.8392 N.ar    1  UNL1       -0.0723
     10 C          63.6126   83.3715   12.9166 C.ar    1  UNL1        0.0647
     11 C          64.2195   83.3892   11.5451 C.ar    1  UNL1        0.0054
     12 C          63.9983   82.2357   10.6121 C.ar    1  UNL1        0.0002
     13 C          63.1701   81.0645   11.0507 C.ar    1  UNL1        0.0023
     14 C          62.5631   81.0468   12.4223 C.ar    1  UNL1        0.0297
     15 C          62.7843   82.2003   13.3552 C.ar    1  UNL1        0.1431
     16 F          62.1774   82.1827   14.7269 F       1  UNL1       -0.2041
     17 C          64.6487   90.6025   13.8794 C.3     1  UNL1        0.1945
     18 C          64.1038   91.4282   12.7519 C.2     1  UNL1        0.3370
     19 O          62.8154   91.0374   12.0904 O.2     1  UNL1       -0.2482
     20 O          64.8473   92.6448   12.2858 O.3     1  UNL1       -0.4473
     21 C          65.2029   92.7969   10.8365 C.3     1  UNL1        0.2084
     22 C          67.6740   92.3232   10.1889 C.3     1  UNL1        0.0038
     23 C          66.5623   93.2968   10.4463 C.3     1  UNL1        0.0439
     24 C          66.8100   94.7702   10.3135 C.3     1  UNL1        0.0038
     25 C          65.1816   91.2731   15.1107 C.3     1  UNL1        0.1386
     26 N          66.5315   91.9265   15.0842 N.ar    1  UNL1       -0.3055
     27 C          67.0839   92.8517   16.1277 C.ar    1  UNL1        0.0981
     28 C          68.4599   93.2664   15.6980 C.ar    1  UNL1        0.1193
     29 N          68.7580   92.5976   14.3889 N.ar    1  UNL1       -0.2223
     30 C          67.5661   91.7694   14.0096 C.ar    1  UNL1        0.1787
@<TRIPOS>BOND
     1    22    23    1
     2    23    24    1
     3    23    21    1
     4    21    20    1
     5    20    18    1
     6    18    19    2
     7    18    17    1
     8    17    25    1
     9    25    26    1
    10    26    27   ar
    11    27    28   ar
    12    28    29   ar
    13    29    30   ar
    14    17     1    1
    15     1     2   am
    16     2     3    2
    17     2     5    1
    18     5     6   ar
    19     6     7   ar
    20     7    10    1
    21    10    11   ar
    22    11    12   ar
    23    12    13   ar
    24    13    14   ar
    25    14    15   ar
    26    15    16    1
    27     7     8   ar
    28     8     9   ar
    29    30    26   ar
    30     9     5   ar
    31    15    10   ar
    32     1     4    1
@<TRIPOS>MOLECULE
*****
 30 32 0 0 0
SMALL
GASTEIGER

@<TRIPOS>ATOM
      1 N          64.4926   88.9478   13.6891 N.am    1  UNL1       -0.2904
      2 C          63.9735   88.0881   14.8033 C.2     1  UNL1        0.2673
      3 O          63.4154   88.7226   16.0425 O.2     1  UNL1       -0.2684
      4 H          64.8589   88.5313   12.8757 H       1  UNL1        0.1503
      5 C          64.0126   86.5938   14.6782 C.ar    1  UNL1        0.1761
      6 C          63.6794   85.8030   13.4479 C.ar    1  UNL1        0.0673
      7 C          63.8526   84.3485   13.7707 C.ar    1  UNL1        0.1792
      8 O          64.2929   84.2403   15.2006 O.2     1  UNL1       -0.3532
      9 N          64.3918   85.6279   15.7615 N.ar    1  UNL1       -0.0723
     10 C          63.6255   83.2031   12.8291 C.ar    1  UNL1        0.0647
     11 C          64.1649   83.2635   11.4308 C.ar    1  UNL1        0.0054
     12 C          63.9378   82.1182   10.4892 C.ar    1  UNL1        0.0002
     13 C          63.1712   80.9125   10.9459 C.ar    1  UNL1        0.0023
     14 C          62.6317   80.8521   12.3442 C.ar    1  UNL1        0.0297
     15 C          62.8589   81.9974   13.2858 C.ar    1  UNL1        0.1431
     16 F          62.3194   81.9371   14.6842 F       1  UNL1       -0.2041
     17 C          64.4535   90.4421   13.8142 C.3     1  UNL1        0.1945
     18 C          63.8958   91.2738   12.6975 C.2     1  UNL1        0.3370
     19 O          64.7446   92.3286   12.0516 O.2     1  UNL1       -0.2482
     20 O          62.4892   91.0508   12.2265 O.3     1  UNL1       -0.4473
     21 C          62.2360   90.5062   10.8519 C.3     1  UNL1        0.2084
     22 C          59.6752   90.4902   11.2905 C.3     1  UNL1        0.0038
     23 C          60.8530   90.0801   10.4571 C.3     1  UNL1        0.0439
     24 C          60.6478   89.2440    9.2288 C.3     1  UNL1        0.0038
     25 C          64.9722   91.1046   15.0560 C.3     1  UNL1        0.1386
     26 N          66.2964   91.8085   15.0333 N.ar    1  UNL1       -0.3055
     27 C          66.7948   92.7828   16.0591 C.ar    1  UNL1        0.0981
     28 C          68.1614   93.2382   15.6406 C.ar    1  UNL1        0.1193
     29 N          68.5076   92.5454   14.3560 N.ar    1  UNL1       -0.2223
     30 C          67.3550   91.6618   13.9807 C.ar    1  UNL1        0.1787
@<TRIPOS>BOND
     1    22    23    1
     2    23    24    1
     3    23    21    1
     4    21    20    1
     5    20    18    1
     6    18    19    2
     7    18    17    1
     8    17    25    1
     9    25    26    1
    10    26    27   ar
    11    27    28   ar
    12    28    29   ar
    13    29    30   ar
    14    17     1    1
    15     1     2   am
    16     2     3    2
    17     2     5    1
    18     5     6   ar
    19     6     7   ar
    20     7    10    1
    21    10    11   ar
    22    11    12   ar
    23    12    13   ar
    24    13    14   ar
    25    14    15   ar
    26    15    16    1
    27     7     8   ar
    28     8     9   ar
    29    30    26   ar
    30     9     5   ar
    31    15    10   ar
    32     1     4    1
@<TRIPOS>MOLECULE
*****
 30 32 0 0 0
SMALL
GASTEIGER

@<TRIPOS>ATOM
      1 N          63.5568   88.5721   12.5452 N.am    1  UNL1       -0.2904
      2 C          63.8029   87.9447   13.8852 C.2     1  UNL1        0.2673
      3 O          63.8074   88.7940   15.1216 O.2     1  UNL1       -0.2684
      4 H          63.5539   88.0147   11.7337 H       1  UNL1        0.1503
      5 C          64.0446   86.4679   13.9889 C.ar    1  UNL1        0.1761
      6 C          63.3576   85.4035   13.1856 C.ar    1  UNL1        0.0673
      7 C          63.9041   84.0740   13.6143 C.ar    1  UNL1        0.1792
      8 O          64.9288   84.3167   14.6825 O.2     1  UNL1       -0.3532
      9 N          65.0157   85.7962   14.9140 N.ar    1  UNL1       -0.0723
     10 C          63.4972   82.7366   13.0702 C.ar    1  UNL1        0.0647
     11 C          62.8770   81.7153   13.9769 C.ar    1  UNL1        0.0054
     12 C          62.4702   80.3780   13.4329 C.ar    1  UNL1        0.0002
     13 C          62.6837   80.0620   11.9822 C.ar    1  UNL1        0.0023
     14 C          63.3039   81.0833   11.0755 C.ar    1  UNL1        0.0297
     15 C          63.7107   82.4206   11.6195 C.ar    1  UNL1        0.1431
     16 F          64.3310   83.4421   10.7128 F       1  UNL1       -0.2041
     17 C          63.3152   90.0489   12.4415 C.3     1  UNL1        0.1945
     18 C          62.6179   90.6121   11.2389 C.2     1  UNL1        0.3370
     19 O          63.2940   91.6559   10.4001 O.2     1  UNL1       -0.2482
     20 O          61.2443   90.1316   10.8750 O.3     1  UNL1       -0.4473
     21 C          61.0381   89.3241    9.6277 C.3     1  UNL1        0.2084
     22 C          60.8369   87.0556   10.8781 C.3     1  UNL1        0.0038
     23 C          60.4783   87.9354    9.7173 C.3     1  UNL1        0.0439
     24 C          59.5599   87.4264    8.6462 C.3     1  UNL1        0.0038
     25 C          63.7709   90.9624   13.5405 C.3     1  UNL1        0.1386
     26 N          65.1416   91.5695   13.4912 N.ar    1  UNL1       -0.3055
     27 C          66.3034   91.1957   14.3633 C.ar    1  UNL1        0.0981
     28 C          67.4711   92.0522   13.9722 C.ar    1  UNL1        0.1193
     29 N          67.0311   92.9553   12.8582 N.ar    1  UNL1       -0.2223
     30 C          65.5913   92.6569   12.5610 C.ar    1  UNL1        0.1787
@<TRIPOS>BOND
     1    22    23    1
     2    23    24    1
     3    23    21    1
     4    21    20    1
     5    20    18    1
     6    18    19    2
     7    18    17    1
     8    17    25    1
     9    25    26    1
    10    26    27   ar
    11    27    28   ar
    12    28    29   ar
    13    29    30   ar
    14    17     1    1
    15     1     2   am
    16     2     3    2
    17     2     5    1
    18     5     6   ar
    19     6     7   ar
    20     7    10    1
    21    10    11   ar
    22    11    12   ar
    23    12    13   ar
    24    13    14   ar
    25    14    15   ar
    26    15    16    1
    27     7     8   ar
    28     8     9   ar
    29    30    26   ar
    30     9     5   ar
    31    15    10   ar
    32     1     4    1
@<TRIPOS>MOLECULE
*****
 30 32 0 0 0
SMALL
GASTEIGER

@<TRIPOS>ATOM
      1 N          64.4587   89.2114   13.8036 N.am    1  UNL1       -0.2904
      2 C          63.9809   88.3508   14.9354 C.2     1  UNL1        0.2673
      3 O          63.4879   88.9840   16.2027 O.2     1  UNL1       -0.2684
      4 H          64.7823   88.7959   12.9718 H       1  UNL1        0.1503
      5 C          63.9962   86.8570   14.8000 C.ar    1  UNL1        0.1761
      6 C          63.7062   86.0821   13.5488 C.ar    1  UNL1        0.0673
      7 C          63.8349   84.6221   13.8674 C.ar    1  UNL1        0.1792
      8 O          64.2044   84.4945   15.3156 O.2     1  UNL1       -0.3532
      9 N          64.3041   85.8758   15.8920 N.ar    1  UNL1       -0.0723
     10 C          63.6301   83.4885   12.9066 C.ar    1  UNL1        0.0647
     11 C          64.2658   83.5321   11.5487 C.ar    1  UNL1        0.0054
     12 C          64.0609   82.3985   10.5880 C.ar    1  UNL1        0.0002
     13 C          63.2204   81.2214   10.9852 C.ar    1  UNL1        0.0023
     14 C          62.5847   81.1778   12.3431 C.ar    1  UNL1        0.0297
     15 C          62.7895   82.3113   13.3038 C.ar    1  UNL1        0.1431
     16 F          62.1538   82.2677   14.6618 F       1  UNL1       -0.2041
     17 C          64.4434   90.7052   13.9391 C.3     1  UNL1        0.1945
     18 C          64.8687   91.3458   15.2269 C.2     1  UNL1        0.3370
     19 O          63.8394   91.9195   16.1552 O.2     1  UNL1       -0.2482
     20 O          66.3234   91.4129   15.5866 O.3     1  UNL1       -0.4473
     21 C          66.9278   92.7130   16.0279 C.3     1  UNL1        0.2084
     22 C          69.0012   92.2786   14.5237 C.3     1  UNL1        0.0038
     23 C          68.3096   93.0878   15.5806 C.3     1  UNL1        0.0439
     24 C          68.9999   94.2718   16.1902 C.3     1  UNL1        0.0038
     25 C          64.0028   91.5584   12.7867 C.3     1  UNL1        0.1386
     26 N          65.0093   92.3704   12.0269 N.ar    1  UNL1       -0.3055
     27 C          65.2178   92.3507   10.5416 C.ar    1  UNL1        0.0981
     28 C          66.3214   93.3130   10.2156 C.ar    1  UNL1        0.1193
     29 N          66.7949   93.9274   11.4994 N.ar    1  UNL1       -0.2223
     30 C          65.9839   93.3448   12.6188 C.ar    1  UNL1        0.1787
@<TRIPOS>BOND
     1    22    23    1
     2    23    24    1
     3    23    21    1
     4    21    20    1
     5    20    18    1
     6    18    19    2
     7    18    17    1
     8    17    25    1
     9    25    26    1
    10    26    27   ar
    11    27    28   ar
    12    28    29   ar
    13    29    30   ar
    14    17     1    1
    15     1     2   am
    16     2     3    2
    17     2     5    1
    18     5     6   ar
    19     6     7   ar
    20     7    10    1
    21    10    11   ar
    22    11    12   ar
    23    12    13   ar
    24    13    14   ar
    25    14    15   ar
    26    15    16    1
    27     7     8   ar
    28     8     9   ar
    29    30    26   ar
    30     9     5   ar
    31    15    10   ar
    32     1     4    1
@<TRIPOS>MOLECULE
*****
 30 32 0 0 0
SMALL
GASTEIGER

@<TRIPOS>ATOM
      1 N          63.7811   89.0718   12.3421 N.am    1  UNL1       -0.2904
      2 C          63.5661   88.4667   13.6977 C.2     1  UNL1        0.2673
      3 O          63.0495   89.3129   14.8233 O.2     1  UNL1       -0.2684
      4 H          64.1202   88.5164   11.6033 H       1  UNL1        0.1503
      5 C          63.8677   87.0154   13.9276 C.ar    1  UNL1        0.1761
      6 C          63.1519   85.8560   13.3003 C.ar    1  UNL1        0.0673
      7 C          63.7798   84.5928   13.8102 C.ar    1  UNL1        0.1792
      8 O          64.8836   84.9715   14.7527 O.2     1  UNL1       -0.3532
      9 N          64.9380   86.4687   14.8252 N.ar    1  UNL1       -0.0723
     10 C          63.3749   83.1961   13.4423 C.ar    1  UNL1        0.0647
     11 C          62.5232   82.3909   14.3783 C.ar    1  UNL1        0.0054
     12 C          62.1184   80.9943   14.0104 C.ar    1  UNL1        0.0002
     13 C          62.5653   80.4028   12.7063 C.ar    1  UNL1        0.0023
     14 C          63.4170   81.2079   11.7703 C.ar    1  UNL1        0.0297
     15 C          63.8218   82.6046   12.1383 C.ar    1  UNL1        0.1431
     16 F          64.6736   83.4099   11.2022 F       1  UNL1       -0.2041
     17 C          63.4796   90.5231   12.1122 C.3     1  UNL1        0.1945
     18 C          64.4847   91.5680   12.4967 C.2     1  UNL1        0.3370
     19 O          65.3037   92.2463   11.4387 O.2     1  UNL1       -0.2482
     20 O          64.6709   91.9345   13.9393 O.3     1  UNL1       -0.4473
     21 C          65.7941   91.3291   14.7280 C.3     1  UNL1        0.2084
     22 C          67.4208   92.8777   16.0342 C.3     1  UNL1        0.0038
     23 C          67.1100   92.0422   14.8278 C.3     1  UNL1        0.0439
     24 C          68.1153   91.9197   13.7213 C.3     1  UNL1        0.0038
     25 C          62.1730   90.9295   11.4978 C.3     1  UNL1        0.1386
     26 N          61.2778   89.8934   10.8854 N.ar    1  UNL1       -0.3055
     27 C          61.3074   89.4355    9.4573 C.ar    1  UNL1        0.0981
     28 C          60.2436   88.3924    9.2828 C.ar    1  UNL1        0.1193
     29 N          59.5566   88.2056   10.6031 N.ar    1  UNL1       -0.2223
     30 C          60.1958   89.1333   11.5935 C.ar    1  UNL1        0.1787
@<TRIPOS>BOND
     1    22    23    1
     2    23    24    1
     3    23    21    1
     4    21    20    1
     5    20    18    1
     6    18    19    2
     7    18    17    1
     8    17    25    1
     9    25    26    1
    10    26    27   ar
    11    27    28   ar
    12    28    29   ar
    13    29    30   ar
    14    17     1    1
    15     1     2   am
    16     2     3    2
    17     2     5    1
    18     5     6   ar
    19     6     7   ar
    20     7    10    1
    21    10    11   ar
    22    11    12   ar
    23    12    13   ar
    24    13    14   ar
    25    14    15   ar
    26    15    16    1
    27     7     8   ar
    28     8     9   ar
    29    30    26   ar
    30     9     5   ar
    31    15    10   ar
    32     1     4    1
@<TRIPOS>MOLECULE
*****
 30 32 0 0 0
SMALL
GASTEIGER

@<TRIPOS>ATOM
      1 N          63.7892   86.4163   13.6447 N.am    1  UNL1       -0.2904
      2 C          63.6826   87.0773   14.9869 C.2     1  UNL1        0.2673
      3 O          63.3287   86.2647   16.1971 O.2     1  UNL1       -0.2684
      4 H          64.0214   86.9496   12.8504 H       1  UNL1        0.1503
      5 C          63.9299   88.5509   15.1190 C.ar    1  UNL1        0.1761
      6 C          64.6693   89.4122   14.1386 C.ar    1  UNL1        0.0673
      7 C          64.6776   90.8154   14.6684 C.ar    1  UNL1        0.1792
      8 O          63.9431   90.8214   15.9763 O.2     1  UNL1       -0.3532
      9 N          63.4810   89.4219   16.2548 N.ar    1  UNL1       -0.0723
     10 C          65.3093   92.0041   14.0065 C.ar    1  UNL1        0.0647
     11 C          65.0851   92.2558   12.5449 C.ar    1  UNL1        0.0054
     12 C          65.7168   93.4445   11.8830 C.ar    1  UNL1        0.0002
     13 C          66.5727   94.3814   12.6828 C.ar    1  UNL1        0.0023
     14 C          66.7969   94.1296   14.1444 C.ar    1  UNL1        0.0297
     15 C          66.1652   92.9410   14.8062 C.ar    1  UNL1        0.1431
     16 F          66.3894   92.6892   16.2679 F       1  UNL1       -0.2041
     17 C          63.5419   84.9427   13.5126 C.3     1  UNL1        0.1945
     18 C          64.3650   83.9702   14.3041 C.2     1  UNL1        0.3370
     19 O          65.8083   84.2652   14.5870 O.2     1  UNL1       -0.2482
     20 O          63.7450   82.7026   14.8128 O.3     1  UNL1       -0.4473
     21 C          63.8095   81.4521   13.9869 C.3     1  UNL1        0.2084
     22 C          62.7114   80.7140   11.7510 C.3     1  UNL1        0.0038
     23 C          62.6035   80.9965   13.2201 C.3     1  UNL1        0.0439
     24 C          61.2894   80.8236   13.9225 C.3     1  UNL1        0.0038
     25 C          62.4715   84.4416   12.5889 C.3     1  UNL1        0.1386
     26 N          62.2739   85.0874   11.2496 N.ar    1  UNL1       -0.3055
     27 C          61.2799   86.1636   10.9277 C.ar    1  UNL1        0.0981
     28 C          61.4274   86.5117    9.4760 C.ar    1  UNL1        0.1193
     29 N          62.5126   85.6506    8.9008 N.ar    1  UNL1       -0.2223
     30 C          63.0358   84.7703    9.9970 C.ar    1  UNL1        0.1787
@<TRIPOS>BOND
     1    22    23    1
     2    23    24    1
     3    23    21    1
     4    21    20    1
     5    20    18    1
     6    18    19    2
     7    18    17    1
     8    17    25    1
     9    25    26    1
    10    26    27   ar
    11    27    28   ar
    12    28    29   ar
    13    29    30   ar
    14    17     1    1
    15     1     2   am
    16     2     3    2
    17     2     5    1
    18     5     6   ar
    19     6     7   ar
    20     7    10    1
    21    10    11   ar
    22    11    12   ar
    23    12    13   ar
    24    13    14   ar
    25    14    15   ar
    26    15    16    1
    27     7     8   ar
    28     8     9   ar
    29    30    26   ar
    30     9     5   ar
    31    15    10   ar
    32     1     4    1
