@<TRIPOS>MOLECULE
*****
 45 49 0 0 0
SMALL
GASTEIGER

@<TRIPOS>ATOM
      1 C          64.3415   87.4181   14.2634 C.3     1  UNL1        0.1246
      2 N          63.9170   88.1694   15.4904 N.am    1  UNL1       -0.2721
      3 C          63.6838   89.6494   15.4204 C.2     1  UNL1        0.2492
      4 O          63.2594   90.4007   16.6474 O.2     1  UNL1       -0.2699
      5 C          63.8750   90.3783   14.1234 C.ar    1  UNL1        0.0567
      6 C          63.0494   90.0089   12.9267 C.ar    1  UNL1        0.0063
      7 C          63.2406   90.7378   11.6298 C.ar    1  UNL1        0.0225
      8 C          64.2574   91.8361   11.5295 C.ar    1  UNL1        0.1202
      9 N          64.6655   92.7252   10.3923 N.ar    1  UNL1       -0.1946
     10 C          65.7433   93.6441   10.8863 C.ar    1  UNL1        0.2924
     11 O          66.0012   93.3229   12.3286 O.2     1  UNL1       -0.4237
     12 C          65.0829   92.2055   12.7261 C.ar    1  UNL1        0.1662
     13 C          64.8917   91.4766   14.0230 C.ar    1  UNL1        0.0437
     14 N          66.4407   94.6991   10.0795 N.pl3   1  UNL1       -0.2636
     15 C          67.3484   94.4582    8.9099 C.3     1  UNL1        0.0951
     16 C          67.8215   95.7904    8.4083 C.3     1  UNL1        0.0233
     17 C          67.2063   96.8545    9.2680 C.3     1  UNL1        0.0233
     18 C          66.3528   96.1799   10.3009 C.3     1  UNL1        0.0951
     19 C          63.7259   87.4405   16.7875 C.3     1  UNL1        0.1111
     20 C          62.3669   86.9334   17.1696 C.3     1  UNL1        0.0939
     21 C          62.6393   84.3705   16.8422 C.3     1  UNL1        0.0897
     22 N          61.8663   85.6349   16.6100 N.3     1  UNL1       -0.2688
     23 C          60.5928   85.6007   15.8183 C.3     1  UNL1        0.0897
     24 C          64.4660   85.9238   14.3046 C.3     1  UNL1        0.1484
     25 O          65.3398   85.2721   15.3349 O.3     1  UNL1       -0.3810
     26 H          65.7481   85.9542   15.8908 H       1  UNL1        0.2105
     27 C          63.7167   85.0813   13.3153 C.3     1  UNL1        0.1075
     28 N          62.4395   85.5882   12.7138 N.am    1  UNL1       -0.2695
     29 C          62.1870   85.4272   11.2440 C.2     1  UNL1        0.4020
     30 O          63.2118   84.7594   10.3756 O.2     1  UNL1       -0.2264
     31 H          61.7669   86.0265   13.2837 H       1  UNL1        0.1528
     32 O          60.9098   85.9341   10.6425 O.3     1  UNL1       -0.4291
     33 C          60.9191   87.1723    9.7958 C.3     1  UNL1        0.2447
     34 C          60.3794   88.4599   10.3442 C.ar    1  UNL1        0.0714
     35 C          60.3992   89.7903    9.6516 C.ar    1  UNL1        0.1053
     36 N          59.7572   90.7959   10.5608 N.ar    1  UNL1       -0.2350
     37 C          59.3407   90.0870   11.8154 C.ar    1  UNL1        0.1343
     38 S          59.7252   88.6433   11.6815 S.2     1  UNL1       -0.0652
     39 C          64.2446   83.7319   12.9275 C.3     1  UNL1        0.0485
     40 C          63.3875   82.5132   13.1005 C.ar    1  UNL1       -0.0204
     41 C          63.5645   81.3360   12.1878 C.ar    1  UNL1       -0.0042
     42 C          62.7072   80.1173   12.3608 C.ar    1  UNL1       -0.0003
     43 C          61.6730   80.0757   13.4464 C.ar    1  UNL1       -0.0000
     44 C          61.4960   81.2529   14.3591 C.ar    1  UNL1       -0.0003
     45 C          62.3532   82.4716   14.1861 C.ar    1  UNL1       -0.0042
@<TRIPOS>BOND
     1    21    22    1
     2    22    23    1
     3    22    20    1
     4    20    19    1
     5    19     2    1
     6     2     1    1
     7     1    24    1
     8    24    25    1
     9    24    27    1
    10    27    39    1
    11    39    40    1
    12    40    41   ar
    13    41    42   ar
    14    42    43   ar
    15    43    44   ar
    16    44    45   ar
    17    27    28    1
    18    28    29   am
    19    29    30    2
    20    29    32    1
    21    32    33    1
    22    33    34    1
    23    34    35   ar
    24    35    36   ar
    25    36    37   ar
    26    37    38   ar
    27     2     3   am
    28     3     4    2
    29     3     5    1
    30     5     6   ar
    31     6     7   ar
    32     7     8   ar
    33     8     9   ar
    34     9    10   ar
    35    10    14    1
    36    14    15    1
    37    15    16    1
    38    16    17    1
    39    17    18    1
    40    10    11   ar
    41    11    12   ar
    42    12    13   ar
    43    45    40   ar
    44    38    34   ar
    45    13     5   ar
    46    12     8   ar
    47    18    14    1
    48    25    26    1
    49    28    31    1
@<TRIPOS>MOLECULE
*****
 45 49 0 0 0
SMALL
GASTEIGER

@<TRIPOS>ATOM
      1 C          62.5935   89.2387   11.1515 C.3     1  UNL1        0.1246
      2 N          63.3487   90.2494   11.9628 N.am    1  UNL1       -0.2721
      3 C          64.0108   89.8388   13.2446 C.2     1  UNL1        0.2492
      4 O          64.7661   90.8494   14.0559 O.2     1  UNL1       -0.2699
      5 C          63.9176   88.4175   13.7152 C.ar    1  UNL1        0.0567
      6 C          64.2856   88.0692   15.1270 C.ar    1  UNL1        0.0063
      7 C          64.1924   86.6480   15.5975 C.ar    1  UNL1        0.0225
      8 C          63.7312   85.5751   14.6562 C.ar    1  UNL1        0.1202
      9 N          63.5405   84.0979   14.8340 N.ar    1  UNL1       -0.1946
     10 C          63.0546   83.5332   13.5321 C.ar    1  UNL1        0.2924
     11 O          62.9450   84.6614   12.5497 O.2     1  UNL1       -0.4237
     12 C          63.3631   85.9233   13.2444 C.ar    1  UNL1        0.1662
     13 C          63.4564   87.3446   12.7739 C.ar    1  UNL1        0.0437
     14 N          62.7344   82.0932   13.2603 N.pl3   1  UNL1       -0.2636
     15 C          63.1632   81.3066   12.0572 C.3     1  UNL1        0.0951
     16 C          62.6230   79.9142   12.1972 C.3     1  UNL1        0.0233
     17 C          61.8605   79.8403   13.4868 C.3     1  UNL1        0.0233
     18 C          61.9294   81.1871   14.1438 C.3     1  UNL1        0.0951
     19 C          63.4419   91.6706   11.4922 C.3     1  UNL1        0.1111
     20 C          64.5048   92.0676   10.5111 C.3     1  UNL1        0.0939
     21 C          66.9565   92.8244   10.1027 C.3     1  UNL1        0.0897
     22 N          65.7493   92.7540   10.9905 N.3     1  UNL1       -0.2688
     23 C          65.7869   93.3701   12.3576 C.3     1  UNL1        0.0897
     24 C          61.1848   89.5234   10.7217 C.3     1  UNL1        0.1484
     25 O          60.3159   90.4242   11.5484 O.3     1  UNL1       -0.3810
     26 H          60.8144   90.7351   12.3203 H       1  UNL1        0.2105
     27 C          60.6451   88.9072    9.4651 C.3     1  UNL1        0.1075
     28 N          60.5142   89.7342    8.2205 N.am    1  UNL1       -0.2695
     29 C          59.4297   89.4314    7.2294 C.2     1  UNL1        0.4020
     30 O          58.4760   88.3016    7.4830 O.2     1  UNL1       -0.2264
     31 H          61.1401   90.4757    8.0541 H       1  UNL1        0.1528
     32 O          59.2987   90.2583    5.9849 O.3     1  UNL1       -0.4291
     33 C          60.5239   90.8140    5.3213 C.3     1  UNL1        0.2447
     34 C          60.3874   91.7316    4.1425 C.ar    1  UNL1        0.0714
     35 C          59.1330   92.4315    3.7105 C.ar    1  UNL1        0.1053
     36 N          59.4517   93.2429    2.4899 N.ar    1  UNL1       -0.2350
     37 C          60.9032   93.0445    2.1674 C.ar    1  UNL1        0.1343
     38 S          61.4815   92.1105    3.1888 S.2     1  UNL1       -0.0652
     39 C          60.2362   87.4640    9.4531 C.3     1  UNL1        0.0485
     40 C          61.0589   86.4577    8.7045 C.ar    1  UNL1       -0.0204
     41 C          62.4130   86.0655    9.2170 C.ar    1  UNL1       -0.0042
     42 C          63.2357   85.0592    8.4683 C.ar    1  UNL1       -0.0003
     43 C          62.7043   84.4450    7.2072 C.ar    1  UNL1       -0.0000
     44 C          61.3502   84.8372    6.6947 C.ar    1  UNL1       -0.0003
     45 C          60.5275   85.8435    7.4433 C.ar    1  UNL1       -0.0042
@<TRIPOS>BOND
     1    21    22    1
     2    22    23    1
     3    22    20    1
     4    20    19    1
     5    19     2    1
     6     2     1    1
     7     1    24    1
     8    24    25    1
     9    24    27    1
    10    27    39    1
    11    39    40    1
    12    40    41   ar
    13    41    42   ar
    14    42    43   ar
    15    43    44   ar
    16    44    45   ar
    17    27    28    1
    18    28    29   am
    19    29    30    2
    20    29    32    1
    21    32    33    1
    22    33    34    1
    23    34    35   ar
    24    35    36   ar
    25    36    37   ar
    26    37    38   ar
    27     2     3   am
    28     3     4    2
    29     3     5    1
    30     5     6   ar
    31     6     7   ar
    32     7     8   ar
    33     8     9   ar
    34     9    10   ar
    35    10    14    1
    36    14    15    1
    37    15    16    1
    38    16    17    1
    39    17    18    1
    40    10    11   ar
    41    11    12   ar
    42    12    13   ar
    43    45    40   ar
    44    38    34   ar
    45    13     5   ar
    46    12     8   ar
    47    18    14    1
    48    25    26    1
    49    28    31    1
@<TRIPOS>MOLECULE
*****
 45 49 0 0 0
SMALL
GASTEIGER

@<TRIPOS>ATOM
      1 C          62.3961   87.4304   11.1401 C.3     1  UNL1        0.1246
      2 N          61.1195   88.1681   10.8641 N.am    1  UNL1       -0.2721
      3 C          61.1044   89.6680   10.8669 C.2     1  UNL1        0.2492
      4 O          59.8279   90.4057   10.5908 O.2     1  UNL1       -0.2699
      5 C          62.3659   90.4303   11.1456 C.ar    1  UNL1        0.0567
      6 C          63.0226   91.2194   10.0520 C.ar    1  UNL1        0.0063
      7 C          64.2840   91.9816   10.3309 C.ar    1  UNL1        0.0225
      8 C          64.8888   91.9547   11.7033 C.ar    1  UNL1        0.1202
      9 N          66.1165   92.6024   12.2720 N.ar    1  UNL1       -0.1946
     10 C          66.2185   92.2134   13.7171 C.ar    1  UNL1        0.2924
     11 O          65.0539   91.3254   14.0415 O.2     1  UNL1       -0.4237
     12 C          64.2321   91.1655   12.7969 C.ar    1  UNL1        0.1662
     13 C          62.9707   90.4033   12.5181 C.ar    1  UNL1        0.0437
     14 N          67.2960   92.6380   14.6705 N.pl3   1  UNL1       -0.2636
     15 C          68.1769   91.7236   15.4693 C.3     1  UNL1        0.0951
     16 C          69.1070   92.5720   16.2849 C.3     1  UNL1        0.0233
     17 C          68.8010   94.0105   15.9901 C.3     1  UNL1        0.0233
     18 C          67.6817   94.0513   14.9923 C.3     1  UNL1        0.0951
     19 C          59.8580   87.4058   10.5853 C.3     1  UNL1        0.1111
     20 C          58.9567   87.8314    9.4644 C.3     1  UNL1        0.0939
     21 C          59.6258   88.9391    7.2115 C.3     1  UNL1        0.0897
     22 N          59.4184   87.7077    8.0426 N.3     1  UNL1       -0.2688
     23 C          59.6727   86.3525    7.4519 C.3     1  UNL1        0.0897
     24 C          62.5620   86.0160   10.6687 C.3     1  UNL1        0.1484
     25 O          62.3896   85.6846    9.2160 O.3     1  UNL1       -0.3810
     26 H          62.1750   86.4922    8.7233 H       1  UNL1        0.2105
     27 C          62.9002   84.9332   11.6500 C.3     1  UNL1        0.1075
     28 N          62.2809   84.9389   13.0162 N.am    1  UNL1       -0.2695
     29 C          63.1370   84.7222   14.2287 C.2     1  UNL1        0.4020
     30 O          64.6125   84.4998   14.0750 O.2     1  UNL1       -0.2264
     31 H          61.3125   85.0849   13.1171 H       1  UNL1        0.1528
     32 O          62.5177   84.7279   15.5948 O.3     1  UNL1       -0.4291
     33 C          63.1108   85.5722   16.6836 C.3     1  UNL1        0.2447
     34 C          63.2921   87.0465   16.4749 C.ar    1  UNL1        0.0714
     35 C          64.0058   87.6929   15.3248 C.ar    1  UNL1        0.1053
     36 N          63.9464   89.1792   15.5187 N.ar    1  UNL1       -0.2350
     37 C          63.1960   89.4513   16.7887 C.ar    1  UNL1        0.1343
     38 S          62.7916   88.1332   17.3797 S.2     1  UNL1       -0.0652
     39 C          63.8578   83.8447   11.2652 C.3     1  UNL1        0.0485
     40 C          63.4386   82.4078   11.3633 C.ar    1  UNL1       -0.0204
     41 C          63.0354   81.8329   12.6888 C.ar    1  UNL1       -0.0042
     42 C          62.6162   80.3960   12.7868 C.ar    1  UNL1       -0.0003
     43 C          62.6001   79.5340   11.5593 C.ar    1  UNL1       -0.0000
     44 C          63.0033   80.1089   10.2338 C.ar    1  UNL1       -0.0003
     45 C          63.4225   81.5458   10.1358 C.ar    1  UNL1       -0.0042
@<TRIPOS>BOND
     1    21    22    1
     2    22    23    1
     3    22    20    1
     4    20    19    1
     5    19     2    1
     6     2     1    1
     7     1    24    1
     8    24    25    1
     9    24    27    1
    10    27    39    1
    11    39    40    1
    12    40    41   ar
    13    41    42   ar
    14    42    43   ar
    15    43    44   ar
    16    44    45   ar
    17    27    28    1
    18    28    29   am
    19    29    30    2
    20    29    32    1
    21    32    33    1
    22    33    34    1
    23    34    35   ar
    24    35    36   ar
    25    36    37   ar
    26    37    38   ar
    27     2     3   am
    28     3     4    2
    29     3     5    1
    30     5     6   ar
    31     6     7   ar
    32     7     8   ar
    33     8     9   ar
    34     9    10   ar
    35    10    14    1
    36    14    15    1
    37    15    16    1
    38    16    17    1
    39    17    18    1
    40    10    11   ar
    41    11    12   ar
    42    12    13   ar
    43    45    40   ar
    44    38    34   ar
    45    13     5   ar
    46    12     8   ar
    47    18    14    1
    48    25    26    1
    49    28    31    1
@<TRIPOS>MOLECULE
*****
 45 49 0 0 0
SMALL
GASTEIGER

@<TRIPOS>ATOM
      1 C          63.6671   89.6182   12.2543 C.3     1  UNL1        0.1246
      2 N          64.2036   90.5664   13.2854 N.am    1  UNL1       -0.2721
      3 C          64.3326   90.1267   14.7137 C.2     1  UNL1        0.2492
      4 O          64.8691   91.0750   15.7447 O.2     1  UNL1       -0.2699
      5 C          63.9252   88.7388   15.1109 C.ar    1  UNL1        0.0567
      6 C          63.4022   88.4771   16.4922 C.ar    1  UNL1        0.0063
      7 C          62.9948   87.0893   16.8894 C.ar    1  UNL1        0.0225
      8 C          63.1105   85.9631   15.9054 C.ar    1  UNL1        0.1202
      9 N          62.7886   84.5017   16.0100 N.ar    1  UNL1       -0.1946
     10 C          63.1128   83.8603   14.6935 C.ar    1  UNL1        0.2924
     11 O          63.6350   84.9252   13.7751 O.2     1  UNL1       -0.4237
     12 C          63.6336   86.2248   14.5241 C.ar    1  UNL1        0.1662
     13 C          64.0409   87.6126   14.1269 C.ar    1  UNL1        0.0437
     14 N          62.9444   82.4087   14.3546 N.pl3   1  UNL1       -0.2636
     15 C          64.0332   81.4726   13.9205 C.3     1  UNL1        0.0951
     16 C          63.4193   80.1238   13.6880 C.3     1  UNL1        0.0233
     17 C          61.9513   80.2264   13.9785 C.3     1  UNL1        0.0233
     18 C          61.6578   81.6386   14.3905 C.3     1  UNL1        0.0951
     19 C          64.6110   91.9543   12.8881 C.3     1  UNL1        0.1111
     20 C          65.0164   92.2407   11.4727 C.3     1  UNL1        0.0939
     21 C          67.2385   92.7358   10.2207 C.3     1  UNL1        0.0897
     22 N          66.1755   93.1512   11.1942 N.3     1  UNL1       -0.2688
     23 C          66.2717   94.4770   11.8891 C.3     1  UNL1        0.0897
     24 C          62.1868   89.4167   12.1187 C.3     1  UNL1        0.1484
     25 O          61.2535   90.0067   13.1339 O.3     1  UNL1       -0.3810
     26 H          61.7658   90.4834   13.8056 H       1  UNL1        0.2105
     27 C          61.6400   88.6253   10.9678 C.3     1  UNL1        0.1075
     28 N          61.4912   89.2666    9.6199 N.am    1  UNL1       -0.2695
     29 C          60.3499   88.8793    8.7270 C.2     1  UNL1        0.4020
     30 O          59.3574   87.8506    9.1818 O.2     1  UNL1       -0.2264
     31 H          62.1426   89.9418    9.3214 H       1  UNL1        0.1528
     32 O          60.2010   89.5206    7.3792 O.3     1  UNL1       -0.4291
     33 C          58.9067   89.4011    6.6306 C.3     1  UNL1        0.2447
     34 C          58.4674   90.5022    5.7115 C.ar    1  UNL1        0.0714
     35 C          59.3678   91.4649    4.9956 C.ar    1  UNL1        0.1053
     36 N          58.5076   92.3917    4.1887 N.ar    1  UNL1       -0.2350
     37 C          57.0755   92.0017    4.4060 C.ar    1  UNL1        0.1343
     38 S          57.0507   90.8340    5.3471 S.2     1  UNL1       -0.0652
     39 C          61.2420   87.1925   11.1646 C.3     1  UNL1        0.0485
     40 C          62.0354   86.0977   10.5151 C.ar    1  UNL1       -0.0204
     41 C          62.4484   86.2218    9.0785 C.ar    1  UNL1       -0.0042
     42 C          63.2419   85.1269    8.4289 C.ar    1  UNL1       -0.0003
     43 C          63.6222   83.9081    9.2161 C.ar    1  UNL1       -0.0000
     44 C          63.2092   83.7840   10.6528 C.ar    1  UNL1       -0.0003
     45 C          62.4158   84.8788   11.3023 C.ar    1  UNL1       -0.0042
@<TRIPOS>BOND
     1    21    22    1
     2    22    23    1
     3    22    20    1
     4    20    19    1
     5    19     2    1
     6     2     1    1
     7     1    24    1
     8    24    25    1
     9    24    27    1
    10    27    39    1
    11    39    40    1
    12    40    41   ar
    13    41    42   ar
    14    42    43   ar
    15    43    44   ar
    16    44    45   ar
    17    27    28    1
    18    28    29   am
    19    29    30    2
    20    29    32    1
    21    32    33    1
    22    33    34    1
    23    34    35   ar
    24    35    36   ar
    25    36    37   ar
    26    37    38   ar
    27     2     3   am
    28     3     4    2
    29     3     5    1
    30     5     6   ar
    31     6     7   ar
    32     7     8   ar
    33     8     9   ar
    34     9    10   ar
    35    10    14    1
    36    14    15    1
    37    15    16    1
    38    16    17    1
    39    17    18    1
    40    10    11   ar
    41    11    12   ar
    42    12    13   ar
    43    45    40   ar
    44    38    34   ar
    45    13     5   ar
    46    12     8   ar
    47    18    14    1
    48    25    26    1
    49    28    31    1
@<TRIPOS>MOLECULE
*****
 45 49 0 0 0
SMALL
GASTEIGER

@<TRIPOS>ATOM
      1 C          66.6212   91.1375   14.0696 C.3     1  UNL1        0.1246
      2 N          65.7352   91.6065   15.1853 N.am    1  UNL1       -0.2721
      3 C          64.4953   90.8370   15.5325 C.2     1  UNL1        0.2492
      4 O          63.6093   91.3060   16.6483 O.2     1  UNL1       -0.2699
      5 C          64.1414   89.5984   14.7639 C.ar    1  UNL1        0.0567
      6 C          63.7504   89.6983   13.3193 C.ar    1  UNL1        0.0063
      7 C          63.3966   88.4597   12.5508 C.ar    1  UNL1        0.0225
      8 C          63.4338   87.1212   13.2269 C.ar    1  UNL1        0.1202
      9 N          63.1390   85.7370   12.7297 N.ar    1  UNL1       -0.1946
     10 C          63.3479   84.7817   13.8671 C.ar    1  UNL1        0.2924
     11 O          63.7717   85.5755   15.0672 O.2     1  UNL1       -0.4237
     12 C          63.8248   87.0214   14.6716 C.ar    1  UNL1        0.1662
     13 C          64.1786   88.2599   15.4401 C.ar    1  UNL1        0.0437
     14 N          63.1650   83.2938   13.8137 N.pl3   1  UNL1       -0.2636
     15 C          64.1122   82.3108   13.1919 C.3     1  UNL1        0.0951
     16 C          63.5354   80.9372   13.3668 C.3     1  UNL1        0.0233
     17 C          62.2319   81.0713   14.0966 C.3     1  UNL1        0.0233
     18 C          62.0030   82.5278   14.3729 C.3     1  UNL1        0.0951
     19 C          66.0890   92.8451   15.9540 C.3     1  UNL1        0.1111
     20 C          67.2375   93.7014   15.5091 C.3     1  UNL1        0.0939
     21 C          69.6472   94.5069   16.0516 C.3     1  UNL1        0.0897
     22 N          68.6242   93.4109   16.0015 N.3     1  UNL1       -0.2688
     23 C          68.9881   92.0246   16.4437 C.3     1  UNL1        0.0897
     24 C          66.9887   92.0761   12.9586 C.3     1  UNL1        0.1484
     25 O          68.3556   92.0125   12.3444 O.3     1  UNL1       -0.3810
     26 H          68.8728   91.3157   12.7779 H       1  UNL1        0.2105
     27 C          65.9891   93.0782   12.4619 C.3     1  UNL1        0.1075
     28 N          64.5790   92.6532   12.1773 N.am    1  UNL1       -0.2695
     29 C          64.2356   92.0295   10.8570 C.2     1  UNL1        0.4020
     30 O          65.3025   91.8309    9.8213 O.2     1  UNL1       -0.2264
     31 H          63.8788   92.7836   12.8570 H       1  UNL1        0.1528
     32 O          62.8256   91.6046   10.5723 O.3     1  UNL1       -0.4291
     33 C          62.5617   90.4474    9.6551 C.3     1  UNL1        0.2447
     34 C          61.5759   89.3876   10.0492 C.ar    1  UNL1        0.0714
     35 C          60.4103   89.5684   10.9757 C.ar    1  UNL1        0.1053
     36 N          59.6967   88.2536   11.0852 N.ar    1  UNL1       -0.2350
     37 C          60.4215   87.2601   10.2262 C.ar    1  UNL1        0.1343
     38 S          61.5829   87.9610    9.5859 S.2     1  UNL1       -0.0652
     39 C          66.3997   94.5052   12.2499 C.3     1  UNL1        0.0485
     40 C          66.4100   95.0849   10.8665 C.ar    1  UNL1       -0.0204
     41 C          67.2851   94.4827    9.8075 C.ar    1  UNL1       -0.0042
     42 C          67.2954   95.0626    8.4240 C.ar    1  UNL1       -0.0003
     43 C          66.4307   96.2445    8.0997 C.ar    1  UNL1       -0.0000
     44 C          65.5557   96.8467    9.1588 C.ar    1  UNL1       -0.0003
     45 C          65.5453   96.2670   10.5421 C.ar    1  UNL1       -0.0042
@<TRIPOS>BOND
     1    21    22    1
     2    22    23    1
     3    22    20    1
     4    20    19    1
     5    19     2    1
     6     2     1    1
     7     1    24    1
     8    24    25    1
     9    24    27    1
    10    27    39    1
    11    39    40    1
    12    40    41   ar
    13    41    42   ar
    14    42    43   ar
    15    43    44   ar
    16    44    45   ar
    17    27    28    1
    18    28    29   am
    19    29    30    2
    20    29    32    1
    21    32    33    1
    22    33    34    1
    23    34    35   ar
    24    35    36   ar
    25    36    37   ar
    26    37    38   ar
    27     2     3   am
    28     3     4    2
    29     3     5    1
    30     5     6   ar
    31     6     7   ar
    32     7     8   ar
    33     8     9   ar
    34     9    10   ar
    35    10    14    1
    36    14    15    1
    37    15    16    1
    38    16    17    1
    39    17    18    1
    40    10    11   ar
    41    11    12   ar
    42    12    13   ar
    43    45    40   ar
    44    38    34   ar
    45    13     5   ar
    46    12     8   ar
    47    18    14    1
    48    25    26    1
    49    28    31    1
@<TRIPOS>MOLECULE
*****
 45 49 0 0 0
SMALL
GASTEIGER

@<TRIPOS>ATOM
      1 C          62.4321   87.5323   10.9869 C.3     1  UNL1        0.1246
      2 N          61.1323   88.2788   10.9303 N.am    1  UNL1       -0.2721
      3 C          61.1126   89.7662   11.1234 C.2     1  UNL1        0.2492
      4 O          59.8128   90.5127   11.0668 O.2     1  UNL1       -0.2699
      5 C          62.3928   90.5071   11.3731 C.ar    1  UNL1        0.0567
      6 C          63.0540   91.2593   10.2565 C.ar    1  UNL1        0.0063
      7 C          64.3341   92.0002   10.5063 C.ar    1  UNL1        0.0225
      8 C          64.9530   91.9887   11.8726 C.ar    1  UNL1        0.1202
      9 N          66.2002   92.6218   12.4149 N.ar    1  UNL1       -0.1946
     10 C          66.3096   92.2607   13.8667 C.ar    1  UNL1        0.2924
     11 O          65.1302   91.4045   14.2216 O.2     1  UNL1       -0.4237
     12 C          64.2918   91.2364   12.9892 C.ar    1  UNL1        0.1662
     13 C          63.0117   90.4956   12.7394 C.ar    1  UNL1        0.0437
     14 N          67.4061   92.6818   14.7998 N.pl3   1  UNL1       -0.2636
     15 C          68.2932   91.7648   15.5885 C.3     1  UNL1        0.0951
     16 C          69.2432   92.6102   16.3841 C.3     1  UNL1        0.0233
     17 C          68.9432   94.0495   16.0870 C.3     1  UNL1        0.0233
     18 C          67.8077   94.0937   15.1078 C.3     1  UNL1        0.0951
     19 C          59.8521   87.5379   10.6806 C.3     1  UNL1        0.1111
     20 C          59.0496   87.8222    9.4457 C.3     1  UNL1        0.0939
     21 C          60.3980   86.4108    7.7310 C.3     1  UNL1        0.0897
     22 N          59.6794   87.6771    8.0921 N.3     1  UNL1       -0.2688
     23 C          59.5908   88.7982    7.0995 C.3     1  UNL1        0.0897
     24 C          62.4887   86.1716   11.6158 C.3     1  UNL1        0.1484
     25 O          61.5297   85.1036   11.1803 O.3     1  UNL1       -0.3810
     26 H          60.9456   85.4553   10.4904 H       1  UNL1        0.2105
     27 C          63.5043   85.8790   12.6802 C.3     1  UNL1        0.1075
     28 N          63.9829   84.4735   12.8942 N.am    1  UNL1       -0.2695
     29 C          64.2455   83.5832   11.7160 C.2     1  UNL1        0.4020
     30 O          64.0296   84.0982   10.3238 O.2     1  UNL1       -0.2264
     31 H          64.1246   84.1355   13.8079 H       1  UNL1        0.1528
     32 O          64.7241   82.1778   11.9299 O.3     1  UNL1       -0.4291
     33 C          64.4331   81.4749   13.2227 C.3     1  UNL1        0.2447
     34 C          63.0206   81.1197   13.5818 C.ar    1  UNL1        0.0714
     35 C          62.0499   81.9974   14.3148 C.ar    1  UNL1        0.1053
     36 N          60.7603   81.2446   14.4570 N.ar    1  UNL1       -0.2350
     37 C          60.9340   79.9016   13.8118 C.ar    1  UNL1        0.1343
     38 S          62.3310   79.8244   13.2709 S.2     1  UNL1       -0.0652
     39 C          64.0413   86.9918   13.5307 C.3     1  UNL1        0.0485
     40 C          63.6545   87.0840   14.9770 C.ar    1  UNL1       -0.0204
     41 C          63.4875   88.4267   15.6245 C.ar    1  UNL1       -0.0042
     42 C          63.1007   88.5188   17.0709 C.ar    1  UNL1       -0.0003
     43 C          62.8810   87.2683   17.8697 C.ar    1  UNL1       -0.0000
     44 C          63.0481   85.9257   17.2221 C.ar    1  UNL1       -0.0003
     45 C          63.4349   85.8335   15.7758 C.ar    1  UNL1       -0.0042
@<TRIPOS>BOND
     1    21    22    1
     2    22    23    1
     3    22    20    1
     4    20    19    1
     5    19     2    1
     6     2     1    1
     7     1    24    1
     8    24    25    1
     9    24    27    1
    10    27    39    1
    11    39    40    1
    12    40    41   ar
    13    41    42   ar
    14    42    43   ar
    15    43    44   ar
    16    44    45   ar
    17    27    28    1
    18    28    29   am
    19    29    30    2
    20    29    32    1
    21    32    33    1
    22    33    34    1
    23    34    35   ar
    24    35    36   ar
    25    36    37   ar
    26    37    38   ar
    27     2     3   am
    28     3     4    2
    29     3     5    1
    30     5     6   ar
    31     6     7   ar
    32     7     8   ar
    33     8     9   ar
    34     9    10   ar
    35    10    14    1
    36    14    15    1
    37    15    16    1
    38    16    17    1
    39    17    18    1
    40    10    11   ar
    41    11    12   ar
    42    12    13   ar
    43    45    40   ar
    44    38    34   ar
    45    13     5   ar
    46    12     8   ar
    47    18    14    1
    48    25    26    1
    49    28    31    1
@<TRIPOS>MOLECULE
*****
 45 49 0 0 0
SMALL
GASTEIGER

@<TRIPOS>ATOM
      1 C          64.9764   90.8024   13.3594 C.3     1  UNL1        0.1246
      2 N          65.0018   91.6507   14.5962 N.am    1  UNL1       -0.2721
      3 C          64.5481   91.0796   15.9068 C.2     1  UNL1        0.2492
      4 O          64.5735   91.9279   17.1436 O.2     1  UNL1       -0.2699
      5 C          64.0689   89.6600   15.9808 C.ar    1  UNL1        0.0567
      6 C          63.1928   89.2224   17.1169 C.ar    1  UNL1        0.0063
      7 C          62.7137   87.8029   17.1908 C.ar    1  UNL1        0.0225
      8 C          63.1107   86.8211   16.1285 C.ar    1  UNL1        0.1202
      9 N          62.7948   85.3672   15.9369 N.ar    1  UNL1       -0.1946
     10 C          63.4758   84.9064   14.6823 C.ar    1  UNL1        0.2924
     11 O          64.2124   86.0754   14.0986 O.2     1  UNL1       -0.4237
     12 C          63.9868   87.2587   14.9924 C.ar    1  UNL1        0.1662
     13 C          64.4659   88.6782   14.9185 C.ar    1  UNL1        0.0437
     14 N          63.4284   83.5199   14.1117 N.pl3   1  UNL1       -0.2636
     15 C          64.3290   82.9752   13.0430 C.3     1  UNL1        0.0951
     16 C          63.9292   81.5534   12.7804 C.3     1  UNL1        0.0233
     17 C          62.7816   81.2196   13.6867 C.3     1  UNL1        0.0233
     18 C          62.4720   82.4351   14.5095 C.3     1  UNL1        0.0951
     19 C          65.4810   93.0702   14.5222 C.3     1  UNL1        0.1111
     20 C          66.7651   93.3926   13.8172 C.3     1  UNL1        0.0939
     21 C          68.7050   91.7026   13.4556 C.3     1  UNL1        0.0897
     22 N          68.0503   92.7721   14.2789 N.3     1  UNL1       -0.2688
     23 C          68.6809   93.2211   15.5637 C.3     1  UNL1        0.0897
     24 C          63.7425   90.7549   12.5077 C.3     1  UNL1        0.1484
     25 O          62.5112   90.0604   13.0092 O.3     1  UNL1       -0.3810
     26 H          62.6810   89.6997   13.8935 H       1  UNL1        0.2105
     27 C          63.7400   91.4019   11.1544 C.3     1  UNL1        0.1075
     28 N          63.1696   90.6715    9.9749 N.am    1  UNL1       -0.2695
     29 C          61.7025   90.3637    9.9211 C.2     1  UNL1        0.4020
     30 O          60.8058   90.7864   11.0468 O.2     1  UNL1       -0.2264
     31 H          63.7582   90.3940    9.2361 H       1  UNL1        0.1528
     32 O          61.1322   89.6332    8.7417 O.3     1  UNL1       -0.4291
     33 C          60.4469   88.3133    8.9367 C.3     1  UNL1        0.2447
     34 C          61.0909   87.2508    9.7773 C.ar    1  UNL1        0.0714
     35 C          60.8929   87.0518   11.2508 C.ar    1  UNL1        0.1053
     36 N          61.7255   85.8788   11.6762 N.ar    1  UNL1       -0.2350
     37 C          62.4382   85.3530   10.4655 C.ar    1  UNL1        0.1343
     38 S          62.0459   86.2009    9.2920 S.2     1  UNL1       -0.0652
     39 C          64.3077   92.7794   10.9806 C.3     1  UNL1        0.0485
     40 C          65.6885   92.9564   10.4220 C.ar    1  UNL1       -0.0204
     41 C          66.1100   94.2866    9.8716 C.ar    1  UNL1       -0.0042
     42 C          67.4908   94.4637    9.3129 C.ar    1  UNL1       -0.0003
     43 C          68.4500   93.3105    9.3046 C.ar    1  UNL1       -0.0000
     44 C          68.0285   91.9803    9.8550 C.ar    1  UNL1       -0.0003
     45 C          66.6478   91.8033   10.4137 C.ar    1  UNL1       -0.0042
@<TRIPOS>BOND
     1    21    22    1
     2    22    23    1
     3    22    20    1
     4    20    19    1
     5    19     2    1
     6     2     1    1
     7     1    24    1
     8    24    25    1
     9    24    27    1
    10    27    39    1
    11    39    40    1
    12    40    41   ar
    13    41    42   ar
    14    42    43   ar
    15    43    44   ar
    16    44    45   ar
    17    27    28    1
    18    28    29   am
    19    29    30    2
    20    29    32    1
    21    32    33    1
    22    33    34    1
    23    34    35   ar
    24    35    36   ar
    25    36    37   ar
    26    37    38   ar
    27     2     3   am
    28     3     4    2
    29     3     5    1
    30     5     6   ar
    31     6     7   ar
    32     7     8   ar
    33     8     9   ar
    34     9    10   ar
    35    10    14    1
    36    14    15    1
    37    15    16    1
    38    16    17    1
    39    17    18    1
    40    10    11   ar
    41    11    12   ar
    42    12    13   ar
    43    45    40   ar
    44    38    34   ar
    45    13     5   ar
    46    12     8   ar
    47    18    14    1
    48    25    26    1
    49    28    31    1
@<TRIPOS>MOLECULE
*****
 45 49 0 0 0
SMALL
GASTEIGER

@<TRIPOS>ATOM
      1 C          62.7611   87.4106   11.6224 C.3     1  UNL1        0.1246
      2 N          61.5303   88.0306   11.0301 N.am    1  UNL1       -0.2721
      3 C          61.4806   89.5090   10.7814 C.2     1  UNL1        0.2492
      4 O          60.2499   90.1290   10.1891 O.2     1  UNL1       -0.2699
      5 C          62.6618   90.3675   11.1250 C.ar    1  UNL1        0.0567
      6 C          63.1985   91.3422   10.1191 C.ar    1  UNL1        0.0063
      7 C          64.3796   92.2006   10.4627 C.ar    1  UNL1        0.0225
      8 C          65.0240   92.0842   11.8122 C.ar    1  UNL1        0.1202
      9 N          66.1923   92.7930   12.4310 N.ar    1  UNL1       -0.1946
     10 C          66.3776   92.2562   13.8194 C.ar    1  UNL1        0.2924
     11 O          65.3239   91.2158   14.0586 O.2     1  UNL1       -0.4237
     12 C          64.4873   91.1095   12.8181 C.ar    1  UNL1        0.1662
     13 C          63.3062   90.2511   12.4745 C.ar    1  UNL1        0.0437
     14 N          67.4316   92.6847   14.7969 N.pl3   1  UNL1       -0.2636
     15 C          67.8238   94.0989   15.1071 C.3     1  UNL1        0.0951
     16 C          68.9131   94.0623   16.1378 C.3     1  UNL1        0.0233
     17 C          69.1940   92.6256   16.4646 C.3     1  UNL1        0.0233
     18 C          68.2783   91.7741   15.6358 C.3     1  UNL1        0.0951
     19 C          60.3491   87.1722   10.6865 C.3     1  UNL1        0.1111
     20 C          59.3637   87.6311    9.6529 C.3     1  UNL1        0.0939
     21 C          60.2295   86.1021    7.7390 C.3     1  UNL1        0.0897
     22 N          59.6443   87.4053    8.1968 N.3     1  UNL1       -0.2688
     23 C          59.3397   88.4825    7.1984 C.3     1  UNL1        0.0897
     24 C          62.8671   85.9190   11.7399 C.3     1  UNL1        0.1484
     25 O          62.6991   85.0570   10.5239 O.3     1  UNL1       -0.3810
     26 H          62.5290   85.6178    9.7510 H       1  UNL1        0.2105
     27 C          63.1412   85.2894   13.0735 C.3     1  UNL1        0.1075
     28 N          62.3724   84.0745   13.5016 N.am    1  UNL1       -0.2695
     29 C          63.0689   82.9655   14.2330 C.2     1  UNL1        0.4020
     30 O          64.5341   83.0713   14.5364 O.2     1  UNL1       -0.2264
     31 H          61.4108   84.0051   13.3025 H       1  UNL1        0.1528
     32 O          62.3002   81.7507   14.6611 O.3     1  UNL1       -0.4291
     33 C          62.4518   80.4629   13.9070 C.3     1  UNL1        0.2447
     34 C          62.7380   80.4852   12.4346 C.ar    1  UNL1        0.0714
     35 C          62.6704   79.3096   11.5054 C.ar    1  UNL1        0.1053
     36 N          63.0326   79.7848   10.1296 N.ar    1  UNL1       -0.2350
     37 C          63.3241   81.2541   10.2085 C.ar    1  UNL1        0.1343
     38 S          63.1420   81.6870   11.6331 S.2     1  UNL1       -0.0652
     39 C          64.1840   85.8746   13.9790 C.3     1  UNL1        0.0485
     40 C          63.7717   86.6499   15.1951 C.ar    1  UNL1       -0.0204
     41 C          63.8096   88.1493   15.1770 C.ar    1  UNL1       -0.0042
     42 C          63.3972   88.9246   16.3932 C.ar    1  UNL1       -0.0003
     43 C          62.9471   88.2005   17.6273 C.ar    1  UNL1       -0.0000
     44 C          62.9093   86.7011   17.6453 C.ar    1  UNL1       -0.0003
     45 C          63.3216   85.9258   16.4293 C.ar    1  UNL1       -0.0042
@<TRIPOS>BOND
     1    21    22    1
     2    22    23    1
     3    22    20    1
     4    20    19    1
     5    19     2    1
     6     2     1    1
     7     1    24    1
     8    24    25    1
     9    24    27    1
    10    27    39    1
    11    39    40    1
    12    40    41   ar
    13    41    42   ar
    14    42    43   ar
    15    43    44   ar
    16    44    45   ar
    17    27    28    1
    18    28    29   am
    19    29    30    2
    20    29    32    1
    21    32    33    1
    22    33    34    1
    23    34    35   ar
    24    35    36   ar
    25    36    37   ar
    26    37    38   ar
    27     2     3   am
    28     3     4    2
    29     3     5    1
    30     5     6   ar
    31     6     7   ar
    32     7     8   ar
    33     8     9   ar
    34     9    10   ar
    35    10    14    1
    36    14    15    1
    37    15    16    1
    38    16    17    1
    39    17    18    1
    40    10    11   ar
    41    11    12   ar
    42    12    13   ar
    43    45    40   ar
    44    38    34   ar
    45    13     5   ar
    46    12     8   ar
    47    18    14    1
    48    25    26    1
    49    28    31    1
@<TRIPOS>MOLECULE
*****
 45 49 0 0 0
SMALL
GASTEIGER

@<TRIPOS>ATOM
      1 C          63.6725   88.9817   13.4700 C.3     1  UNL1        0.1246
      2 N          63.5283   89.5316   14.8581 N.am    1  UNL1       -0.2721
      3 C          64.2708   90.7733   15.2538 C.2     1  UNL1        0.2492
      4 O          64.1266   91.3233   16.6419 O.2     1  UNL1       -0.2699
      5 C          65.1577   91.4653   14.2613 C.ar    1  UNL1        0.0567
      6 C          66.6433   91.2660   14.3163 C.ar    1  UNL1        0.0063
      7 C          67.5301   91.9579   13.3239 C.ar    1  UNL1        0.0225
      8 C          66.9312   92.8490   12.2765 C.ar    1  UNL1        0.1202
      9 N          67.5484   93.6567   11.1734 N.ar    1  UNL1       -0.1946
     10 C          66.4441   94.3551   10.4366 C.ar    1  UNL1        0.2924
     11 O          65.1445   93.9791   11.0844 O.2     1  UNL1       -0.4237
     12 C          65.4455   93.0483   12.2215 C.ar    1  UNL1        0.1662
     13 C          64.5588   92.3564   13.2139 C.ar    1  UNL1        0.0437
     14 N          66.6103   95.2691    9.2589 N.pl3   1  UNL1       -0.2636
     15 C          67.8844   95.5145    8.5061 C.3     1  UNL1        0.0951
     16 C          67.5930   96.4952    7.4091 C.3     1  UNL1        0.0233
     17 C          66.1390   96.8559    7.4840 C.3     1  UNL1        0.0233
     18 C          65.5316   96.0981    8.6272 C.3     1  UNL1        0.0951
     19 C          62.6414   88.8397   15.8506 C.3     1  UNL1        0.1111
     20 C          63.2232   87.8441   16.8098 C.3     1  UNL1        0.0939
     21 C          62.2715   85.4265   16.8028 C.3     1  UNL1        0.0897
     22 N          63.3424   86.4023   16.4137 N.3     1  UNL1       -0.2688
     23 C          64.5324   85.9361   15.6286 C.3     1  UNL1        0.0897
     24 C          62.4761   88.8960   12.5692 C.3     1  UNL1        0.1484
     25 O          61.3913   89.9277   12.6629 O.3     1  UNL1       -0.3810
     26 H          61.6179   90.5736   13.3502 H       1  UNL1        0.2105
     27 C          62.3645   87.7786   11.5748 C.3     1  UNL1        0.1075
     28 N          63.3382   86.6382   11.6156 N.am    1  UNL1       -0.2695
     29 C          63.0139   85.4030   12.4023 C.2     1  UNL1        0.4020
     30 O          61.7158   85.3081   13.1482 O.2     1  UNL1       -0.2264
     31 H          64.1901   86.7006   11.1261 H       1  UNL1        0.1528
     32 O          63.9875   84.2626   12.4432 O.3     1  UNL1       -0.4291
     33 C          63.9781   83.3096   13.6015 C.3     1  UNL1        0.2447
     34 C          63.1122   82.0855   13.5586 C.ar    1  UNL1        0.0714
     35 C          63.3183   80.8903   12.6760 C.ar    1  UNL1        0.1053
     36 N          62.2217   79.9077   12.9627 N.ar    1  UNL1       -0.2350
     37 C          61.3379   80.4958   14.0224 C.ar    1  UNL1        0.1343
     38 S          61.8882   81.8417   14.3907 S.2     1  UNL1       -0.0652
     39 C          61.2793   87.8015   10.5395 C.3     1  UNL1        0.0485
     40 C          61.3490   86.8782    9.3594 C.ar    1  UNL1       -0.0204
     41 C          60.1210   86.6153    8.5392 C.ar    1  UNL1       -0.0042
     42 C          60.1907   85.6920    7.3591 C.ar    1  UNL1       -0.0003
     43 C          61.4885   85.0315    6.9993 C.ar    1  UNL1       -0.0000
     44 C          62.7165   85.2943    7.8195 C.ar    1  UNL1       -0.0003
     45 C          62.6468   86.2176    8.9996 C.ar    1  UNL1       -0.0042
@<TRIPOS>BOND
     1    21    22    1
     2    22    23    1
     3    22    20    1
     4    20    19    1
     5    19     2    1
     6     2     1    1
     7     1    24    1
     8    24    25    1
     9    24    27    1
    10    27    39    1
    11    39    40    1
    12    40    41   ar
    13    41    42   ar
    14    42    43   ar
    15    43    44   ar
    16    44    45   ar
    17    27    28    1
    18    28    29   am
    19    29    30    2
    20    29    32    1
    21    32    33    1
    22    33    34    1
    23    34    35   ar
    24    35    36   ar
    25    36    37   ar
    26    37    38   ar
    27     2     3   am
    28     3     4    2
    29     3     5    1
    30     5     6   ar
    31     6     7   ar
    32     7     8   ar
    33     8     9   ar
    34     9    10   ar
    35    10    14    1
    36    14    15    1
    37    15    16    1
    38    16    17    1
    39    17    18    1
    40    10    11   ar
    41    11    12   ar
    42    12    13   ar
    43    45    40   ar
    44    38    34   ar
    45    13     5   ar
    46    12     8   ar
    47    18    14    1
    48    25    26    1
    49    28    31    1
