@<TRIPOS>MOLECULE
*****
 31 35 0 0 0
SMALL
GASTEIGER

@<TRIPOS>ATOM
      1 C          64.5831   91.6041   12.5492 C.3     1  UNL1        0.2092
      2 C          63.6222   90.6879   11.8512 C.ar    1  UNL1        0.2312
      3 N          62.6306   91.0863   10.7986 N.ar    1  UNL1       -0.2103
      4 C          61.8799   89.8570   10.3800 C.ar    1  UNL1        0.1186
      5 C          60.7840   89.6426    9.3786 C.ar    1  UNL1        0.0223
      6 C          60.2156   88.2701    9.1710 C.ar    1  UNL1        0.0017
      7 C          60.7432   87.1119    9.9649 C.ar    1  UNL1        0.0032
      8 C          61.8392   87.3263   10.9664 C.ar    1  UNL1        0.0391
      9 C          62.4075   88.6988   11.1740 C.ar    1  UNL1        0.1645
     10 O          63.4843   89.2123   12.0832 O.2     1  UNL1       -0.4363
     11 N          64.8580   92.9689   11.9910 N.pl3   1  UNL1       -0.3208
     12 H          64.2918   93.7308   12.2522 H       1  UNL1        0.1476
     13 C          67.3273   94.7094    9.4175 C.ar    1  UNL1        0.1400
     14 C          68.2707   93.5812    9.1226 C.ar    1  UNL1        0.0370
     15 C          68.0766   92.2489    9.7838 C.ar    1  UNL1        0.0044
     16 C          66.9390   92.0448   10.7400 C.ar    1  UNL1        0.0145
     17 C          65.9955   93.1731   11.0349 C.ar    1  UNL1        0.0483
     18 C          66.1897   94.5054   10.3737 C.ar    1  UNL1        0.0512
     19 C          66.3719   96.7084    8.0606 C.3     1  UNL1        0.2525
     20 O          67.5214   96.0418    8.7563 O.3     1  UNL1       -0.4714
     21 C          65.2691   91.1554   13.8056 C.2     1  UNL1        0.2013
     22 O          66.7644   91.2160   13.9061 O.2     1  UNL1       -0.2890
     23 C          64.4596   90.6463   14.9612 C.2     1  UNL1        0.0571
     24 C          63.7753   91.4880   15.9972 C.2     1  UNL1        0.1014
     25 N          63.0851   90.5679   16.9600 N.2     1  UNL1       -0.2477
     26 C          63.3428   89.1575   16.5190 C.2     1  UNL1        0.0635
     27 C          62.9137   87.8354   17.0828 C.3     1  UNL1        0.0717
     28 C          63.3341   86.5617   16.4112 C.2     1  UNL1       -0.0198
     29 C          64.1836   86.6102   15.1759 C.2     1  UNL1       -0.0041
     30 C          64.6127   87.9323   14.6122 C.2     1  UNL1        0.0010
     31 C          64.1923   89.2059   15.2837 C.2     1  UNL1        0.0182
@<TRIPOS>BOND
     1    19    20    1
     2    20    13    1
     3    13    14   ar
     4    14    15   ar
     5    15    16   ar
     6    16    17   ar
     7    17    11    1
     8    11     1    1
     9     1    21    1
    10    21    22    2
    11    21    23    1
    12    23    24    2
    13    24    25    1
    14    25    26    2
    15    26    27    1
    16    27    28    1
    17    28    29    2
    18    29    30    1
    19    30    31    2
    20     1     2    1
    21     2     3   ar
    22     3     4   ar
    23     4     5   ar
    24     5     6   ar
    25     6     7   ar
    26     7     8   ar
    27     8     9   ar
    28     9    10   ar
    29    17    18   ar
    30    18    13   ar
    31    31    23    1
    32    10     2   ar
    33    31    26    1
    34     9     4   ar
    35    11    12    1
@<TRIPOS>MOLECULE
*****
 31 35 0 0 0
SMALL
GASTEIGER

@<TRIPOS>ATOM
      1 C          62.4483   88.1853   11.4583 C.3     1  UNL1        0.2092
      2 C          62.7675   86.8966   12.1566 C.ar    1  UNL1        0.2312
      3 N          62.3330   85.5279   11.7232 N.ar    1  UNL1       -0.2103
      4 C          62.8742   84.5359   12.7096 C.ar    1  UNL1        0.1186
      5 C          62.7662   83.0421   12.7928 C.ar    1  UNL1        0.0223
      6 C          63.4271   82.3040   13.9190 C.ar    1  UNL1        0.0017
      7 C          64.1960   83.0596   14.9620 C.ar    1  UNL1        0.0032
      8 C          64.3040   84.5533   14.8788 C.ar    1  UNL1        0.0391
      9 C          63.6431   85.2915   13.7526 C.ar    1  UNL1        0.1645
     10 O          63.5772   86.7506   13.4108 O.2     1  UNL1       -0.4363
     11 N          62.5290   88.2679    9.9628 N.pl3   1  UNL1       -0.3208
     12 H          63.3274   88.6520    9.5335 H       1  UNL1        0.1476
     13 C          60.3989   85.9774    7.5203 C.ar    1  UNL1        0.1400
     14 C          59.1222   86.7606    7.4387 C.ar    1  UNL1        0.0370
     15 C          58.9812   88.0463    8.1984 C.ar    1  UNL1        0.0044
     16 C          60.1168   88.5487    9.0398 C.ar    1  UNL1        0.0145
     17 C          61.3935   87.7655    9.1214 C.ar    1  UNL1        0.0483
     18 C          61.5345   86.4798    8.3617 C.ar    1  UNL1        0.0512
     19 C          61.8123   84.3907    6.0254 C.3     1  UNL1        0.2525
     20 O          60.5400   84.6918    6.7606 O.3     1  UNL1       -0.4714
     21 C          62.0483   89.3913   12.2557 C.2     1  UNL1        0.2013
     22 O          60.6028   89.7795   12.3542 O.2     1  UNL1       -0.2890
     23 C          63.0938   90.2089   12.9545 C.2     1  UNL1        0.0571
     24 C          63.3963   90.1842   14.4234 C.2     1  UNL1        0.1014
     25 N          64.5099   91.1549   14.6837 N.2     1  UNL1       -0.2477
     26 C          64.8956   91.7795   13.3756 C.2     1  UNL1        0.0635
     27 C          65.9307   92.8050   13.0196 C.3     1  UNL1        0.0717
     28 C          66.0906   93.2460   11.5949 C.2     1  UNL1       -0.0198
     29 C          65.2154   92.6613   10.5261 C.2     1  UNL1       -0.0041
     30 C          64.1803   91.6358   10.8821 C.2     1  UNL1        0.0010
     31 C          64.0204   91.1949   12.3069 C.2     1  UNL1        0.0182
@<TRIPOS>BOND
     1    19    20    1
     2    20    13    1
     3    13    14   ar
     4    14    15   ar
     5    15    16   ar
     6    16    17   ar
     7    17    11    1
     8    11     1    1
     9     1    21    1
    10    21    22    2
    11    21    23    1
    12    23    24    2
    13    24    25    1
    14    25    26    2
    15    26    27    1
    16    27    28    1
    17    28    29    2
    18    29    30    1
    19    30    31    2
    20     1     2    1
    21     2     3   ar
    22     3     4   ar
    23     4     5   ar
    24     5     6   ar
    25     6     7   ar
    26     7     8   ar
    27     8     9   ar
    28     9    10   ar
    29    17    18   ar
    30    18    13   ar
    31    31    23    1
    32    10     2   ar
    33    31    26    1
    34     9     4   ar
    35    11    12    1
@<TRIPOS>MOLECULE
*****
 31 35 0 0 0
SMALL
GASTEIGER

@<TRIPOS>ATOM
      1 C          62.6264   88.1830   11.2635 C.3     1  UNL1        0.2092
      2 C          62.8606   86.9436   12.0753 C.ar    1  UNL1        0.2312
      3 N          62.3806   85.5636   11.7359 N.ar    1  UNL1       -0.2103
      4 C          62.8392   84.6337   12.8199 C.ar    1  UNL1        0.1186
      5 C          62.6603   83.1577   13.0183 C.ar    1  UNL1        0.0223
      6 C          63.2448   82.4871   14.2260 C.ar    1  UNL1        0.0017
      7 C          64.0082   83.2924   15.2353 C.ar    1  UNL1        0.0032
      8 C          64.1871   84.7684   15.0369 C.ar    1  UNL1        0.0391
      9 C          63.6026   85.4391   13.8292 C.ar    1  UNL1        0.1645
     10 O          63.6158   86.8667   13.3690 O.2     1  UNL1       -0.4363
     11 N          62.6283   88.1097    9.7653 N.pl3   1  UNL1       -0.3208
     12 H          63.4191   88.4056    9.2589 H       1  UNL1        0.1476
     13 C          60.3314   85.8178    7.4802 C.ar    1  UNL1        0.1400
     14 C          59.0195   86.5375    7.5849 C.ar    1  UNL1        0.0370
     15 C          58.9105   87.7812    8.4163 C.ar    1  UNL1        0.0044
     16 C          60.1135   88.3052    9.1431 C.ar    1  UNL1        0.0145
     17 C          61.4254   87.5856    9.0385 C.ar    1  UNL1        0.0483
     18 C          61.5344   86.3419    8.2070 C.ar    1  UNL1        0.0512
     19 C          61.6734   84.3235    5.8322 C.3     1  UNL1        0.2525
     20 O          60.4404   84.5741    6.6488 O.3     1  UNL1       -0.4714
     21 C          62.3904   89.4958   11.9499 C.2     1  UNL1        0.2013
     22 O          61.1818   89.6811   12.8185 O.2     1  UNL1       -0.2890
     23 C          63.3631   90.6230   11.7676 C.2     1  UNL1        0.0571
     24 C          63.5596   91.4240   10.5147 C.2     1  UNL1        0.1014
     25 N          64.6280   92.4432   10.7789 N.2     1  UNL1       -0.2477
     26 C          65.0918   92.2720   12.1951 C.2     1  UNL1        0.0635
     27 C          66.1250   92.9952   13.0073 C.3     1  UNL1        0.0717
     28 C          66.3764   92.5934   14.4304 C.2     1  UNL1       -0.0198
     29 C          65.5946   91.4684   15.0414 C.2     1  UNL1       -0.0041
     30 C          64.5614   90.7453   14.2293 C.2     1  UNL1        0.0010
     31 C          64.3100   91.1471   12.8062 C.2     1  UNL1        0.0182
@<TRIPOS>BOND
     1    19    20    1
     2    20    13    1
     3    13    14   ar
     4    14    15   ar
     5    15    16   ar
     6    16    17   ar
     7    17    11    1
     8    11     1    1
     9     1    21    1
    10    21    22    2
    11    21    23    1
    12    23    24    2
    13    24    25    1
    14    25    26    2
    15    26    27    1
    16    27    28    1
    17    28    29    2
    18    29    30    1
    19    30    31    2
    20     1     2    1
    21     2     3   ar
    22     3     4   ar
    23     4     5   ar
    24     5     6   ar
    25     6     7   ar
    26     7     8   ar
    27     8     9   ar
    28     9    10   ar
    29    17    18   ar
    30    18    13   ar
    31    31    23    1
    32    10     2   ar
    33    31    26    1
    34     9     4   ar
    35    11    12    1
@<TRIPOS>MOLECULE
*****
 31 35 0 0 0
SMALL
GASTEIGER

@<TRIPOS>ATOM
      1 C          63.0400   89.4099   12.2223 C.3     1  UNL1        0.2092
      2 C          63.2323   87.9986   12.6927 C.ar    1  UNL1        0.2312
      3 N          63.9983   87.5715   13.9096 N.ar    1  UNL1       -0.2103
      4 C          63.9317   86.0755   13.9977 C.ar    1  UNL1        0.1186
      5 C          64.5018   85.1020   14.9863 C.ar    1  UNL1        0.0223
      6 C          64.2648   83.6311   14.8124 C.ar    1  UNL1        0.0017
      7 C          63.4576   83.1337   13.6501 C.ar    1  UNL1        0.0032
      8 C          62.8875   84.1072   12.6615 C.ar    1  UNL1        0.0391
      9 C          63.1246   85.5781   12.8353 C.ar    1  UNL1        0.1645
     10 O          62.6923   86.7667   12.0288 O.2     1  UNL1       -0.4363
     11 N          63.1518   90.5464   13.1948 N.pl3   1  UNL1       -0.3208
     12 H          62.3534   90.8626   13.6762 H       1  UNL1        0.1476
     13 C          66.3556   92.8294   12.6717 C.ar    1  UNL1        0.1400
     14 C          67.1364   92.5106   13.9121 C.ar    1  UNL1        0.0370
     15 C          66.5890   91.5371   14.9135 C.ar    1  UNL1        0.0044
     16 C          65.2608   90.8824   14.6743 C.ar    1  UNL1        0.0145
     17 C          64.4800   91.2012   13.4339 C.ar    1  UNL1        0.0483
     18 C          65.0274   92.1746   12.4325 C.ar    1  UNL1        0.0512
     19 C          66.2330   95.1299   11.4707 C.3     1  UNL1        0.2525
     20 O          66.9030   93.8028   11.6704 O.3     1  UNL1       -0.4714
     21 C          62.7360   89.6847   10.7793 C.2     1  UNL1        0.2013
     22 O          63.5856   90.6474   10.0040 O.2     1  UNL1       -0.2890
     23 C          61.5823   88.9966   10.1117 C.2     1  UNL1        0.0571
     24 C          60.1564   89.4623   10.1147 C.2     1  UNL1        0.1014
     25 N          59.3449   88.4755    9.3288 N.2     1  UNL1       -0.2477
     26 C          60.2692   87.4000    8.8400 C.2     1  UNL1        0.0635
     27 C          60.0304   86.1690    8.0169 C.3     1  UNL1        0.0717
     28 C          61.1744   85.2600    7.6777 C.2     1  UNL1       -0.0198
     29 C          62.5572   85.5821    8.1616 C.2     1  UNL1       -0.0041
     30 C          62.7960   86.8131    8.9847 C.2     1  UNL1        0.0010
     31 C          61.6520   87.7220    9.3239 C.2     1  UNL1        0.0182
@<TRIPOS>BOND
     1    19    20    1
     2    20    13    1
     3    13    14   ar
     4    14    15   ar
     5    15    16   ar
     6    16    17   ar
     7    17    11    1
     8    11     1    1
     9     1    21    1
    10    21    22    2
    11    21    23    1
    12    23    24    2
    13    24    25    1
    14    25    26    2
    15    26    27    1
    16    27    28    1
    17    28    29    2
    18    29    30    1
    19    30    31    2
    20     1     2    1
    21     2     3   ar
    22     3     4   ar
    23     4     5   ar
    24     5     6   ar
    25     6     7   ar
    26     7     8   ar
    27     8     9   ar
    28     9    10   ar
    29    17    18   ar
    30    18    13   ar
    31    31    23    1
    32    10     2   ar
    33    31    26    1
    34     9     4   ar
    35    11    12    1
@<TRIPOS>MOLECULE
*****
 31 35 0 0 0
SMALL
GASTEIGER

@<TRIPOS>ATOM
      1 C          62.4503   88.1808   11.4423 C.3     1  UNL1        0.2092
      2 C          62.7599   86.8899   12.1407 C.ar    1  UNL1        0.2312
      3 N          62.2898   85.5276   11.7246 N.ar    1  UNL1       -0.2103
      4 C          62.8333   84.5304   12.7045 C.ar    1  UNL1        0.1186
      5 C          62.6984   83.0395   12.7985 C.ar    1  UNL1        0.0223
      6 C          63.3695   82.2945   13.9141 C.ar    1  UNL1        0.0017
      7 C          64.1756   83.0405   14.9358 C.ar    1  UNL1        0.0032
      8 C          64.3105   84.5315   14.8418 C.ar    1  UNL1        0.0391
      9 C          63.6394   85.2764   13.7262 C.ar    1  UNL1        0.1645
     10 O          63.5940   86.7347   13.3777 O.2     1  UNL1       -0.4363
     11 N          62.5597   88.2707    9.9490 N.pl3   1  UNL1       -0.3208
     12 H          63.3927   88.5932    9.5350 H       1  UNL1        0.1476
     13 C          59.3667   88.5181    7.6053 C.ar    1  UNL1        0.1400
     14 C          59.0809   87.0659    7.3614 C.ar    1  UNL1        0.0370
     15 C          59.9547   86.0153    7.9801 C.ar    1  UNL1        0.0044
     16 C          61.1143   86.4169    8.8426 C.ar    1  UNL1        0.0145
     17 C          61.4001   87.8691    9.0865 C.ar    1  UNL1        0.0483
     18 C          60.5263   88.9197    8.4679 C.ar    1  UNL1        0.0512
     19 C          58.9509   90.2971    5.7581 C.3     1  UNL1        0.2525
     20 O          58.4928   89.5687    6.9867 O.3     1  UNL1       -0.4714
     21 C          62.0313   89.3819   12.2373 C.2     1  UNL1        0.2013
     22 O          60.5818   89.7587   12.3189 O.2     1  UNL1       -0.2890
     23 C          63.0619   90.2060   12.9506 C.2     1  UNL1        0.0571
     24 C          63.3430   90.1842   14.4238 C.2     1  UNL1        0.1014
     25 N          64.4472   91.1613   14.6995 N.2     1  UNL1       -0.2477
     26 C          64.8485   91.7870   13.3967 C.2     1  UNL1        0.0635
     27 C          65.8829   92.8181   13.0549 C.3     1  UNL1        0.0717
     28 C          66.0611   93.2588   11.6323 C.2     1  UNL1       -0.0198
     29 C          65.2050   92.6684   10.5514 C.2     1  UNL1       -0.0041
     30 C          64.1706   91.6373   10.8931 C.2     1  UNL1        0.0010
     31 C          63.9923   91.1966   12.3157 C.2     1  UNL1        0.0182
@<TRIPOS>BOND
     1    19    20    1
     2    20    13    1
     3    13    14   ar
     4    14    15   ar
     5    15    16   ar
     6    16    17   ar
     7    17    11    1
     8    11     1    1
     9     1    21    1
    10    21    22    2
    11    21    23    1
    12    23    24    2
    13    24    25    1
    14    25    26    2
    15    26    27    1
    16    27    28    1
    17    28    29    2
    18    29    30    1
    19    30    31    2
    20     1     2    1
    21     2     3   ar
    22     3     4   ar
    23     4     5   ar
    24     5     6   ar
    25     6     7   ar
    26     7     8   ar
    27     8     9   ar
    28     9    10   ar
    29    17    18   ar
    30    18    13   ar
    31    31    23    1
    32    10     2   ar
    33    31    26    1
    34     9     4   ar
    35    11    12    1
@<TRIPOS>MOLECULE
*****
 31 35 0 0 0
SMALL
GASTEIGER

@<TRIPOS>ATOM
      1 C          64.1078   89.2515   14.1853 C.3     1  UNL1        0.2092
      2 C          63.2191   88.9993   13.0035 C.ar    1  UNL1        0.2312
      3 N          62.1299   89.9050   12.5103 N.ar    1  UNL1       -0.2103
      4 C          61.5012   89.2625   11.3094 C.ar    1  UNL1        0.1186
      5 C          60.3813   89.6955   10.4104 C.ar    1  UNL1        0.0223
      6 C          59.9620   88.8257    9.2625 C.ar    1  UNL1        0.0017
      7 C          60.6627   87.5230    9.0136 C.ar    1  UNL1        0.0032
      8 C          61.7827   87.0900    9.9126 C.ar    1  UNL1        0.0391
      9 C          62.2020   87.9598   11.0605 C.ar    1  UNL1        0.1645
     10 O          63.2637   87.7972   12.1075 O.2     1  UNL1       -0.4363
     11 N          64.8256   88.1094   14.8412 N.pl3   1  UNL1       -0.3208
     12 H          65.8021   88.1457   14.9614 H       1  UNL1        0.1476
     13 C          63.3490   84.4299   15.0154 C.ar    1  UNL1        0.1400
     14 C          62.5160   84.5174   16.2598 C.ar    1  UNL1        0.0370
     15 C          62.4529   85.8022   17.0313 C.ar    1  UNL1        0.0044
     16 C          63.2228   86.9995   16.5584 C.ar    1  UNL1        0.0145
     17 C          64.0558   86.9120   15.3140 C.ar    1  UNL1        0.0483
     18 C          64.1189   85.6272   14.5425 C.ar    1  UNL1        0.0512
     19 C          64.2525   83.0548   13.0048 C.3     1  UNL1        0.2525
     20 O          63.4121   83.1451   14.2439 O.3     1  UNL1       -0.4714
     21 C          64.2787   90.6460   14.7112 C.2     1  UNL1        0.2013
     22 O          63.3495   91.1687   15.7662 O.2     1  UNL1       -0.2890
     23 C          65.3788   91.5176   14.1820 C.2     1  UNL1        0.0571
     24 C          66.5854   91.9761   14.9462 C.2     1  UNL1        0.1014
     25 N          67.4178   92.8255   14.0321 N.2     1  UNL1       -0.2477
     26 C          66.7257   92.8920   12.7030 C.2     1  UNL1        0.0635
     27 C          67.0802   93.5842   11.4204 C.3     1  UNL1        0.0717
     28 C          66.1745   93.4680   10.2303 C.2     1  UNL1       -0.0198
     29 C          64.9144   92.6596   10.3229 C.2     1  UNL1       -0.0041
     30 C          64.5599   91.9675   11.6056 C.2     1  UNL1        0.0010
     31 C          65.4656   92.0836   12.7956 C.2     1  UNL1        0.0182
@<TRIPOS>BOND
     1    19    20    1
     2    20    13    1
     3    13    14   ar
     4    14    15   ar
     5    15    16   ar
     6    16    17   ar
     7    17    11    1
     8    11     1    1
     9     1    21    1
    10    21    22    2
    11    21    23    1
    12    23    24    2
    13    24    25    1
    14    25    26    2
    15    26    27    1
    16    27    28    1
    17    28    29    2
    18    29    30    1
    19    30    31    2
    20     1     2    1
    21     2     3   ar
    22     3     4   ar
    23     4     5   ar
    24     5     6   ar
    25     6     7   ar
    26     7     8   ar
    27     8     9   ar
    28     9    10   ar
    29    17    18   ar
    30    18    13   ar
    31    31    23    1
    32    10     2   ar
    33    31    26    1
    34     9     4   ar
    35    11    12    1
@<TRIPOS>MOLECULE
*****
 31 35 0 0 0
SMALL
GASTEIGER

@<TRIPOS>ATOM
      1 C          63.9955   89.4768   13.4586 C.3     1  UNL1        0.2092
      2 C          63.1506   88.8808   12.3719 C.ar    1  UNL1        0.2312
      3 N          62.9118   87.4178   12.1430 N.ar    1  UNL1       -0.2103
      4 C          62.0097   87.2760   10.9530 C.ar    1  UNL1        0.1186
      5 C          61.4373   86.0722   10.2652 C.ar    1  UNL1        0.0223
      6 C          60.5463   86.2437    9.0708 C.ar    1  UNL1        0.0017
      7 C          60.2276   87.6192    8.5642 C.ar    1  UNL1        0.0032
      8 C          60.8000   88.8230    9.2520 C.ar    1  UNL1        0.0391
      9 C          61.6910   88.6515   10.4464 C.ar    1  UNL1        0.1645
     10 O          62.3961   89.6433   11.3234 O.2     1  UNL1       -0.4363
     11 N          64.7933   88.5847   14.3629 N.pl3   1  UNL1       -0.3208
     12 H          65.7765   88.6356   14.3622 H       1  UNL1        0.1476
     13 C          63.4434   85.1753   15.8804 C.ar    1  UNL1        0.1400
     14 C          62.6928   85.6759   17.0787 C.ar    1  UNL1        0.0370
     15 C          62.6423   87.1461   17.3717 C.ar    1  UNL1        0.0044
     16 C          63.3425   88.1157   16.4664 C.ar    1  UNL1        0.0145
     17 C          64.0931   87.6151   15.2681 C.ar    1  UNL1        0.0483
     18 C          64.1436   86.1448   14.9751 C.ar    1  UNL1        0.0512
     19 C          62.3616   83.0467   14.8563 C.3     1  UNL1        0.2525
     20 O          63.4938   83.7050   15.5874 O.3     1  UNL1       -0.4714
     21 C          64.0427   90.9650   13.6410 C.2     1  UNL1        0.2013
     22 O          63.3143   91.8613   12.6839 O.2     1  UNL1       -0.2890
     23 C          64.8182   91.5568   14.7805 C.2     1  UNL1        0.0571
     24 C          64.2764   91.8824   16.1408 C.2     1  UNL1        0.1014
     25 N          65.3950   92.4536   16.9607 N.2     1  UNL1       -0.2477
     26 C          66.6282   92.4810   16.1072 C.2     1  UNL1        0.0635
     27 C          68.0297   92.9391   16.3828 C.3     1  UNL1        0.0717
     28 C          69.0746   92.8429   15.3110 C.2     1  UNL1       -0.0198
     29 C          68.7181   92.2887   13.9636 C.2     1  UNL1       -0.0041
     30 C          67.3166   91.8306   13.6879 C.2     1  UNL1        0.0010
     31 C          66.2717   91.9268   14.7597 C.2     1  UNL1        0.0182
@<TRIPOS>BOND
     1    19    20    1
     2    20    13    1
     3    13    14   ar
     4    14    15   ar
     5    15    16   ar
     6    16    17   ar
     7    17    11    1
     8    11     1    1
     9     1    21    1
    10    21    22    2
    11    21    23    1
    12    23    24    2
    13    24    25    1
    14    25    26    2
    15    26    27    1
    16    27    28    1
    17    28    29    2
    18    29    30    1
    19    30    31    2
    20     1     2    1
    21     2     3   ar
    22     3     4   ar
    23     4     5   ar
    24     5     6   ar
    25     6     7   ar
    26     7     8   ar
    27     8     9   ar
    28     9    10   ar
    29    17    18   ar
    30    18    13   ar
    31    31    23    1
    32    10     2   ar
    33    31    26    1
    34     9     4   ar
    35    11    12    1
@<TRIPOS>MOLECULE
*****
 31 35 0 0 0
SMALL
GASTEIGER

@<TRIPOS>ATOM
      1 C          62.5915   88.1407   11.1965 C.3     1  UNL1        0.2092
      2 C          62.8294   86.9123   12.0239 C.ar    1  UNL1        0.2312
      3 N          62.3393   85.5297   11.7107 N.ar    1  UNL1       -0.2103
      4 C          62.8062   84.6139   12.8030 C.ar    1  UNL1        0.1186
      5 C          62.6229   83.1418   13.0254 C.ar    1  UNL1        0.0223
      6 C          63.2183   82.4864   14.2361 C.ar    1  UNL1        0.0017
      7 C          63.9969   83.3030   15.2245 C.ar    1  UNL1        0.0032
      8 C          64.1802   84.7750   15.0021 C.ar    1  UNL1        0.0391
      9 C          63.5849   85.4305   13.7914 C.ar    1  UNL1        0.1645
     10 O          63.5992   86.8510   13.3099 O.2     1  UNL1       -0.4363
     11 N          62.6231   88.0542    9.6994 N.pl3   1  UNL1       -0.3208
     12 H          63.4666   88.2069    9.2152 H       1  UNL1        0.1476
     13 C          59.3141   88.5201    7.5585 C.ar    1  UNL1        0.1400
     14 C          58.8626   87.0963    7.4210 C.ar    1  UNL1        0.0370
     15 C          59.6647   85.9918    8.0429 C.ar    1  UNL1        0.0044
     16 C          60.9182   86.3111    8.8024 C.ar    1  UNL1        0.0145
     17 C          61.3696   87.7349    8.9399 C.ar    1  UNL1        0.0483
     18 C          60.5676   88.8394    8.3180 C.ar    1  UNL1        0.0512
     19 C          59.0593   90.3788    5.7612 C.3     1  UNL1        0.2525
     20 O          58.5121   89.6246    6.9366 O.3     1  UNL1       -0.4714
     21 C          62.3220   89.4556   11.8663 C.2     1  UNL1        0.2013
     22 O          61.0851   89.6351   12.6956 O.2     1  UNL1       -0.2890
     23 C          63.2894   90.5907   11.7068 C.2     1  UNL1        0.0571
     24 C          63.4959   91.4052   10.4642 C.2     1  UNL1        0.1014
     25 N          64.5544   92.4285   10.7514 N.2     1  UNL1       -0.2477
     26 C          65.0020   92.2465   12.1714 C.2     1  UNL1        0.0635
     27 C          66.0205   92.9683   13.0030 C.3     1  UNL1        0.0717
     28 C          66.2572   92.5543   14.4252 C.2     1  UNL1       -0.0198
     29 C          65.4755   91.4184   15.0157 C.2     1  UNL1       -0.0041
     30 C          64.4570   90.6966   14.1840 C.2     1  UNL1        0.0010
     31 C          64.2203   91.1107   12.7619 C.2     1  UNL1        0.0182
@<TRIPOS>BOND
     1    19    20    1
     2    20    13    1
     3    13    14   ar
     4    14    15   ar
     5    15    16   ar
     6    16    17   ar
     7    17    11    1
     8    11     1    1
     9     1    21    1
    10    21    22    2
    11    21    23    1
    12    23    24    2
    13    24    25    1
    14    25    26    2
    15    26    27    1
    16    27    28    1
    17    28    29    2
    18    29    30    1
    19    30    31    2
    20     1     2    1
    21     2     3   ar
    22     3     4   ar
    23     4     5   ar
    24     5     6   ar
    25     6     7   ar
    26     7     8   ar
    27     8     9   ar
    28     9    10   ar
    29    17    18   ar
    30    18    13   ar
    31    31    23    1
    32    10     2   ar
    33    31    26    1
    34     9     4   ar
    35    11    12    1
@<TRIPOS>MOLECULE
*****
 31 35 0 0 0
SMALL
GASTEIGER

@<TRIPOS>ATOM
      1 C          63.4816   86.3246   13.4298 C.3     1  UNL1        0.2092
      2 C          62.6772   86.8058   12.2587 C.ar    1  UNL1        0.2312
      3 N          61.9519   85.9398   11.2718 N.ar    1  UNL1       -0.2103
      4 C          61.2834   86.8362   10.2721 C.ar    1  UNL1        0.1186
      5 C          60.4308   86.5429    9.0733 C.ar    1  UNL1        0.0223
      6 C          59.8903   87.6695    8.2436 C.ar    1  UNL1        0.0017
      7 C          60.2024   89.0895    8.6126 C.ar    1  UNL1        0.0032
      8 C          61.0550   89.3829    9.8114 C.ar    1  UNL1        0.0391
      9 C          61.5955   88.2562   10.6411 C.ar    1  UNL1        0.1645
     10 O          62.4570   88.2374   11.8689 O.2     1  UNL1       -0.4363
     11 N          64.5896   87.1739   13.9784 N.pl3   1  UNL1       -0.3208
     12 H          65.5279   86.9244   13.8154 H       1  UNL1        0.1476
     13 C          64.4691   90.9688   15.1336 C.ar    1  UNL1        0.1400
     14 C          63.6249   90.8623   16.3690 C.ar    1  UNL1        0.0370
     15 C          63.1024   89.5264   16.8074 C.ar    1  UNL1        0.0044
     16 C          63.4239   88.2970   16.0105 C.ar    1  UNL1        0.0145
     17 C          64.2681   88.4034   14.7752 C.ar    1  UNL1        0.0483
     18 C          64.7907   89.7393   14.3367 C.ar    1  UNL1        0.0512
     19 C          66.3523   92.7586   15.1341 C.3     1  UNL1        0.2525
     20 O          64.9917   92.3047   14.6952 O.3     1  UNL1       -0.4714
     21 C          63.1779   84.9941   14.0524 C.2     1  UNL1        0.2013
     22 O          62.5701   84.9283   15.4221 O.2     1  UNL1       -0.2890
     23 C          63.4819   83.7295   13.3052 C.2     1  UNL1        0.0571
     24 C          64.5689   83.5461   12.2879 C.2     1  UNL1        0.1014
     25 N          64.5112   82.1295   11.7982 N.2     1  UNL1       -0.2477
     26 C          63.3885   81.4373   12.5128 C.2     1  UNL1        0.0635
     27 C          62.8634   80.0344   12.4357 C.3     1  UNL1        0.0717
     28 C          61.7021   79.6204   13.2900 C.2     1  UNL1       -0.0198
     29 C          61.0660   80.6092   14.2215 C.2     1  UNL1       -0.0041
     30 C          61.5912   82.0121   14.2986 C.2     1  UNL1        0.0010
     31 C          62.7525   82.4262   13.4442 C.2     1  UNL1        0.0182
@<TRIPOS>BOND
     1    19    20    1
     2    20    13    1
     3    13    14   ar
     4    14    15   ar
     5    15    16   ar
     6    16    17   ar
     7    17    11    1
     8    11     1    1
     9     1    21    1
    10    21    22    2
    11    21    23    1
    12    23    24    2
    13    24    25    1
    14    25    26    2
    15    26    27    1
    16    27    28    1
    17    28    29    2
    18    29    30    1
    19    30    31    2
    20     1     2    1
    21     2     3   ar
    22     3     4   ar
    23     4     5   ar
    24     5     6   ar
    25     6     7   ar
    26     7     8   ar
    27     8     9   ar
    28     9    10   ar
    29    17    18   ar
    30    18    13   ar
    31    31    23    1
    32    10     2   ar
    33    31    26    1
    34     9     4   ar
    35    11    12    1
