@<TRIPOS>MOLECULE
*****
 37 41 0 0 0
SMALL
GASTEIGER

@<TRIPOS>ATOM
      1 CA         63.2271   85.5729   14.4333 C.3     2  ILE2        0.1523
      2 C          63.8055   86.3291   15.5925 C.2     2  ILE2        0.2409
      3 O          63.8824   85.6849   16.9450 O.2     2  ILE2       -0.2733
      4 N          64.3071   87.7295   15.3992 N.am    1  UNK1       -0.2970
      5 C          64.2303   88.3737   14.0468 C.3     1  UNK1        0.1494
      6 C          63.6518   87.6175   12.8877 C.2     1  UNK1        0.2444
      7 O          63.5750   88.2617   11.5352 O.2     1  UNK1       -0.2731
      8 N          63.1502   86.2171   13.0809 N.am    2  ILE2       -0.2602
      9 H          64.6868   88.2258   16.1600 H       1  UNK1        0.1499
     10 C          64.7319   89.7740   13.8535 C.3     1  UNK1        0.0356
     11 C          64.5694   90.6058   12.6158 C.3     1  UNK1        0.0285
     12 C          65.2211   91.9344   12.8613 C.ar    1  UNK1       -0.0261
     13 C          65.3729   93.1524   11.9992 C.ar    1  UNK1       -0.0046
     14 C          66.0899   94.3598   12.5266 C.ar    1  UNK1       -0.0003
     15 C          66.6551   94.3491   13.9159 C.ar    1  UNK1       -0.0003
     16 C          66.5034   93.1311   14.7780 C.ar    1  UNK1       -0.0046
     17 C          65.7864   91.9237   14.2507 C.ar    1  UNK1       -0.0261
     18 C          65.4840   90.5885   14.8639 C.3     1  UNK1        0.0285
     19 CB         62.7255   84.1726   14.6266 C.3     2  ILE2        0.0272
     20 CG2        61.6851   83.8561   14.7412 C.3     2  ILE2        0.0022
     21 CD1        63.2248   81.6336   14.3941 C.3     2  ILE2        0.0001
     22 CG1        63.6949   83.0292   14.6790 C.3     2  ILE2        0.0021
     23 C          62.5718   85.4610   11.9217 C.3     0  UNK0        0.1962
     24 C          61.4159   86.0324   11.1553 C.2     0  UNK0        0.2499
     25 O          60.5637   86.5831   11.5631 O.2     0  UNK0       -0.2727
     26 N          61.3512   85.8719    9.6654 N.am    0  UNK0       -0.2727
     27 C          62.4424   85.1399    8.9418 C.3     0  UNK0        0.1255
     28 C          62.3777   84.9794    7.4518 C.3     0  UNK0        0.1636
     29 O          61.2218   85.5508    6.6854 O.3     0  UNK0       -0.3501
     30 C          60.1306   86.2827    7.4089 C.3     0  UNK0        0.1636
     31 C          60.1953   86.4433    8.8990 C.3     0  UNK0        0.1255
     32 C          63.1492   84.1335   11.5290 C.ar    0  UNK0        0.1263
     33 C          64.6032   83.8329   11.3154 C.ar    0  UNK0        0.1979
     34 O          64.7266   82.3871   10.9353 O.2     0  UNK0       -0.4355
     35 C          63.3490   81.7942   10.9140 C.ar    0  UNK0        0.2061
     36 C          63.0063   80.3717   10.5837 C.3     0  UNK0        0.0950
     37 N          62.3741   82.8735   11.2809 N.ar    0  UNK0       -0.2142
@<TRIPOS>BOND
     1    21    22    1
     2    22    19    1
     3    19    20    1
     4    19     1    1
     5     1     2    1
     6     2     3    2
     7     2     4   am
     8     4     5    1
     9     5    10    1
    10    10    11    1
    11    11    12    1
    12    12    13   ar
    13    13    14   ar
    14    14    15   ar
    15    15    16   ar
    16    16    17   ar
    17    17    18    1
    18     5     6    1
    19     6     7    2
    20     6     8   am
    21    23     8    1
    22    23    24    1
    23    24    25    2
    24    24    26   am
    25    26    27    1
    26    27    28    1
    27    28    29    1
    28    29    30    1
    29    30    31    1
    30    23    32    1
    31    32    33   ar
    32    33    34   ar
    33    34    35   ar
    34    35    36    1
    35    35    37   ar
    36     1     8    1
    37    31    26    1
    38    37    32   ar
    39    18    10    1
    40    17    12   ar
    41     4     9    1
@<TRIPOS>MOLECULE
*****
 37 41 0 0 0
SMALL
GASTEIGER

@<TRIPOS>ATOM
      1 CA         60.8069   88.6307   10.1786 C.3     2  ILE2        0.1523
      2 C          60.6819   90.1079   10.4067 C.2     2  ILE2        0.2409
      3 O          59.5820   90.8794    9.7395 O.2     2  ILE2       -0.2733
      4 N          61.6567   90.8137   11.3020 N.am    1  UNK1       -0.2970
      5 C          62.7565   90.0423   11.9692 C.3     1  UNK1        0.1494
      6 C          62.8816   88.5650   11.7411 C.2     1  UNK1        0.2444
      7 O          63.9815   87.7935   12.4083 O.2     1  UNK1       -0.2731
      8 N          61.9067   87.8592   10.8457 N.am    2  ILE2       -0.2602
      9 H          61.5746   91.7833   11.4517 H       1  UNK1        0.1499
     10 C          63.7313   90.7481   12.8645 C.3     1  UNK1        0.0356
     11 C          64.8828   91.5990   12.4172 C.3     1  UNK1        0.0285
     12 C          65.5890   92.1037   13.6406 C.ar    1  UNK1       -0.0261
     13 C          66.7906   92.9844   13.8142 C.ar    1  UNK1       -0.0046
     14 C          67.2773   93.3261   15.1913 C.ar    1  UNK1       -0.0003
     15 C          66.5623   92.7871   16.3947 C.ar    1  UNK1       -0.0003
     16 C          65.3606   91.9064   16.2211 C.ar    1  UNK1       -0.0046
     17 C          64.8739   91.5647   14.8440 C.ar    1  UNK1       -0.0261
     18 C          63.7259   90.7269   14.3643 C.3     1  UNK1        0.0285
     19 CB         59.8321   87.9249    9.2833 C.3     2  ILE2        0.0272
     20 CG2        58.9762   87.3179    9.5911 C.3     2  ILE2        0.0022
     21 CD1        59.1296   88.9684    7.0100 C.3     2  ILE2        0.0001
     22 CG1        59.9816   88.0142    7.7934 C.3     2  ILE2        0.0021
     23 C          62.0318   86.3819   10.6176 C.3     0  UNK0        0.1962
     24 C          61.9531   85.4345   11.7779 C.2     0  UNK0        0.2499
     25 O          61.3526   85.5524   12.6842 O.2     0  UNK0       -0.2727
     26 N          62.7555   84.1673   11.7673 N.am    0  UNK0       -0.2727
     27 C          63.6367   83.8473   10.5963 C.3     0  UNK0        0.1255
     28 C          64.4391   82.5800   10.5856 C.3     0  UNK0        0.1636
     29 O          64.3603   81.6327   11.7459 O.3     0  UNK0       -0.3501
     30 C          63.4792   81.9526   12.9169 C.3     0  UNK0        0.1636
     31 C          62.6767   83.2199   12.9276 C.3     0  UNK0        0.1255
     32 C          62.2356   85.8520    9.2293 C.ar    0  UNK0        0.1263
     33 C          63.5095   85.9148    8.4397 C.ar    0  UNK0        0.1979
     34 O          63.2625   85.2679    7.1092 O.2     0  UNK0       -0.4355
     35 C          61.8360   84.8053    7.0763 C.ar    0  UNK0        0.2061
     36 C          61.1624   84.1046    5.9338 C.3     0  UNK0        0.0950
     37 N          61.2014   85.1663    8.3866 N.ar    0  UNK0       -0.2142
@<TRIPOS>BOND
     1    21    22    1
     2    22    19    1
     3    19    20    1
     4    19     1    1
     5     1     2    1
     6     2     3    2
     7     2     4   am
     8     4     5    1
     9     5    10    1
    10    10    11    1
    11    11    12    1
    12    12    13   ar
    13    13    14   ar
    14    14    15   ar
    15    15    16   ar
    16    16    17   ar
    17    17    18    1
    18     5     6    1
    19     6     7    2
    20     6     8   am
    21    23     8    1
    22    23    24    1
    23    24    25    2
    24    24    26   am
    25    26    27    1
    26    27    28    1
    27    28    29    1
    28    29    30    1
    29    30    31    1
    30    23    32    1
    31    32    33   ar
    32    33    34   ar
    33    34    35   ar
    34    35    36    1
    35    35    37   ar
    36     1     8    1
    37    31    26    1
    38    37    32   ar
    39    18    10    1
    40    17    12   ar
    41     4     9    1
@<TRIPOS>MOLECULE
*****
 37 41 0 0 0
SMALL
GASTEIGER

@<TRIPOS>ATOM
      1 CA         63.5085   90.1967   14.8067 C.3     2  ILE2        0.1523
      2 C          64.2819   91.3839   15.2989 C.2     2  ILE2        0.2409
      3 O          64.3704   91.6640   16.7699 O.2     2  ILE2       -0.2733
      4 N          64.9668   92.2912   14.3202 N.am    1  UNK1       -0.2970
      5 C          64.8783   92.0112   12.8493 C.3     1  UNK1        0.1494
      6 C          64.1050   90.8239   12.3570 C.2     1  UNK1        0.2444
      7 O          64.0164   90.5439   10.8860 O.2     1  UNK1       -0.2731
      8 N          63.4201   89.9167   13.3357 N.am    2  ILE2       -0.2602
      9 H          65.4744   93.0704   14.6433 H       1  UNK1        0.1499
     10 C          65.5632   92.9184   11.8706 C.3     1  UNK1        0.0356
     11 C          66.2343   92.4960   10.5973 C.3     1  UNK1        0.0285
     12 C          66.7832   93.7238    9.9331 C.ar    1  UNK1       -0.0261
     13 C          67.5422   93.9188    8.6541 C.ar    1  UNK1       -0.0046
     14 C          67.9694   95.2951    8.2380 C.ar    1  UNK1       -0.0003
     15 C          67.6375   96.4764    9.1007 C.ar    1  UNK1       -0.0003
     16 C          66.8784   96.2814   10.3796 C.ar    1  UNK1       -0.0046
     17 C          66.4512   94.9051   10.7958 C.ar    1  UNK1       -0.0261
     18 C          65.6973   94.4073   11.9932 C.3     1  UNK1        0.0285
     19 CB         62.8236   89.2895   15.7854 C.3     2  ILE2        0.0272
     20 CG2        61.7601   89.2781   16.0392 C.3     2  ILE2        0.0022
     21 CD1        62.9122   87.2433   17.3838 C.3     2  ILE2        0.0001
     22 CG1        63.6163   88.2608   16.5360 C.3     2  ILE2        0.0021
     23 C          62.6467   88.7294   12.8434 C.3     0  UNK0        0.1962
     24 C          61.3541   88.9285   12.1088 C.2     0  UNK0        0.2499
     25 O          60.4942   89.5185   12.4379 O.2     0  UNK0       -0.2727
     26 N          61.1433   88.2804   10.7726 N.am    0  UNK0       -0.2727
     27 C          62.2251   87.4331   10.1710 C.3     0  UNK0        0.1255
     28 C          62.0143   86.7850    8.8348 C.3     0  UNK0        0.1636
     29 O          60.7217   86.9841    8.1002 O.3     0  UNK0       -0.3501
     30 C          59.6399   87.8313    8.7018 C.3     0  UNK0        0.1636
     31 C          59.8507   88.4794   10.0381 C.3     0  UNK0        0.1255
     32 C          63.1658   87.3432   13.0857 C.ar    0  UNK0        0.1263
     33 C          64.3449   86.9798   13.9389 C.ar    0  UNK0        0.1979
     34 O          64.5048   85.4890   13.8978 O.2     0  UNK0       -0.4355
     35 C          63.4247   84.9309   13.0193 C.ar    0  UNK0        0.2061
     36 C          63.2098   83.4814   12.6989 C.3     0  UNK0        0.0950
     37 N          62.5972   86.0769   12.5174 N.ar    0  UNK0       -0.2142
@<TRIPOS>BOND
     1    21    22    1
     2    22    19    1
     3    19    20    1
     4    19     1    1
     5     1     2    1
     6     2     3    2
     7     2     4   am
     8     4     5    1
     9     5    10    1
    10    10    11    1
    11    11    12    1
    12    12    13   ar
    13    13    14   ar
    14    14    15   ar
    15    15    16   ar
    16    16    17   ar
    17    17    18    1
    18     5     6    1
    19     6     7    2
    20     6     8   am
    21    23     8    1
    22    23    24    1
    23    24    25    2
    24    24    26   am
    25    26    27    1
    26    27    28    1
    27    28    29    1
    28    29    30    1
    29    30    31    1
    30    23    32    1
    31    32    33   ar
    32    33    34   ar
    33    34    35   ar
    34    35    36    1
    35    35    37   ar
    36     1     8    1
    37    31    26    1
    38    37    32   ar
    39    18    10    1
    40    17    12   ar
    41     4     9    1
@<TRIPOS>MOLECULE
*****
 37 41 0 0 0
SMALL
GASTEIGER

@<TRIPOS>ATOM
      1 CA         64.8168   91.0082   14.3231 C.3     2  ILE2        0.1523
      2 C          63.7879   89.9602   14.6281 C.2     2  ILE2        0.2409
      3 O          63.6068   89.4741   16.0356 O.2     2  ILE2       -0.2733
      4 N          62.9399   89.3983   13.5257 N.am    1  UNK1       -0.2970
      5 C          63.1209   89.8843   12.1183 C.3     1  UNK1        0.1494
      6 C          64.1498   90.9323   11.8132 C.2     1  UNK1        0.2444
      7 O          64.3309   91.4183   10.4057 O.2     1  UNK1       -0.2731
      8 N          64.9977   91.4942   12.9156 N.am    2  ILE2       -0.2602
      9 H          62.2646   88.7105   13.7260 H       1  UNK1        0.1499
     10 C          62.2730   89.3224   11.0159 C.3     1  UNK1        0.0356
     11 C          61.3943   90.1105   10.0903 C.3     1  UNK1        0.0285
     12 C          60.7331   89.1489    9.1479 C.ar    1  UNK1       -0.0261
     13 C          59.7637   89.3535    8.0217 C.ar    1  UNK1       -0.0046
     14 C          59.2645   88.1756    7.2385 C.ar    1  UNK1       -0.0003
     15 C          59.7347   86.7931    7.5816 C.ar    1  UNK1       -0.0003
     16 C          60.7040   86.5885    8.7078 C.ar    1  UNK1       -0.0046
     17 C          61.2033   87.7664    9.4910 C.ar    1  UNK1       -0.0261
     18 C          62.1550   87.8736   10.6454 C.3     1  UNK1        0.0285
     19 CB         65.6647   91.5701   15.4255 C.3     2  ILE2        0.0272
     20 CG2        66.6423   91.2068   15.7542 C.3     2  ILE2        0.0022
     21 CD1        64.0712   92.6057   17.1969 C.3     2  ILE2        0.0001
     22 CG1        65.1879   92.7582   16.2071 C.3     2  ILE2        0.0021
     23 C          66.0267   92.5422   12.6105 C.3     0  UNK0        0.1962
     24 C          65.7801   93.5396   11.5176 C.2     0  UNK0        0.2499
     25 O          65.0155   94.3211   11.5001 O.2     0  UNK0       -0.2727
     26 N          66.6333   93.5267   10.2839 N.am    0  UNK0       -0.2727
     27 C          67.7331   92.5164   10.1432 C.3     0  UNK0        0.1255
     28 C          68.5862   92.5035    8.9095 C.3     0  UNK0        0.1636
     29 O          68.3396   93.5008    7.8166 O.3     0  UNK0       -0.3501
     30 C          67.2399   94.5111    7.9573 C.3     0  UNK0        0.1636
     31 C          66.3867   94.5240    9.1910 C.3     0  UNK0        0.1255
     32 C          67.3021   92.5928   13.3982 C.ar    0  UNK0        0.1263
     33 C          68.4689   91.6622   13.2477 C.ar    0  UNK0        0.1979
     34 O          69.5226   92.0772   14.2313 O.2     0  UNK0       -0.4355
     35 C          69.0071   93.2642   14.9897 C.ar    0  UNK0        0.2061
     36 C          69.7359   94.0028   16.0729 C.3     0  UNK0        0.0950
     37 N          67.6347   93.5828   14.4749 N.ar    0  UNK0       -0.2142
@<TRIPOS>BOND
     1    21    22    1
     2    22    19    1
     3    19    20    1
     4    19     1    1
     5     1     2    1
     6     2     3    2
     7     2     4   am
     8     4     5    1
     9     5    10    1
    10    10    11    1
    11    11    12    1
    12    12    13   ar
    13    13    14   ar
    14    14    15   ar
    15    15    16   ar
    16    16    17   ar
    17    17    18    1
    18     5     6    1
    19     6     7    2
    20     6     8   am
    21    23     8    1
    22    23    24    1
    23    24    25    2
    24    24    26   am
    25    26    27    1
    26    27    28    1
    27    28    29    1
    28    29    30    1
    29    30    31    1
    30    23    32    1
    31    32    33   ar
    32    33    34   ar
    33    34    35   ar
    34    35    36    1
    35    35    37   ar
    36     1     8    1
    37    31    26    1
    38    37    32   ar
    39    18    10    1
    40    17    12   ar
    41     4     9    1
@<TRIPOS>MOLECULE
*****
 37 41 0 0 0
SMALL
GASTEIGER

@<TRIPOS>ATOM
      1 CA         62.0079   89.1186   10.9225 C.3     2  ILE2        0.1523
      2 C          61.3256   88.0900   10.0703 C.2     2  ILE2        0.2409
      3 O          60.4916   88.5195    8.8997 O.2     2  ILE2       -0.2733
      4 N          61.4771   86.6320   10.3885 N.am    1  UNK1       -0.2970
      5 C          62.3110   86.2026   11.5590 C.3     1  UNK1        0.1494
      6 C          62.9934   87.2312   12.4113 C.2     1  UNK1        0.2444
      7 O          63.8273   86.8017   13.5819 O.2     1  UNK1       -0.2731
      8 N          62.8418   88.6892   12.0930 N.am    2  ILE2       -0.2602
      9 H          61.0292   85.9570    9.8291 H       1  UNK1        0.1499
     10 C          62.4626   84.7446   11.8772 C.3     1  UNK1        0.0356
     11 C          62.7188   83.6479   10.8865 C.3     1  UNK1        0.0285
     12 C          62.7991   82.3528   11.6390 C.ar    1  UNK1       -0.0261
     13 C          63.0336   80.9420   11.1867 C.ar    1  UNK1       -0.0046
     14 C          63.0616   79.8275   12.1902 C.ar    1  UNK1       -0.0003
     15 C          62.8549   80.1238   13.6461 C.ar    1  UNK1       -0.0003
     16 C          62.6204   81.5346   14.0984 C.ar    1  UNK1       -0.0046
     17 C          62.5925   82.6491   13.0949 C.ar    1  UNK1       -0.0261
     18 C          62.3845   84.1273   13.2421 C.3     1  UNK1        0.0285
     19 CB         61.8564   90.5766   10.6043 C.3     2  ILE2        0.0272
     20 CG2        62.4720   91.1686    9.9215 C.3     2  ILE2        0.0022
     21 CD1        59.4143   90.7635   11.4712 C.3     2  ILE2        0.0001
     22 CG1        60.7659   91.3765   11.2531 C.3     2  ILE2        0.0021
     23 C          63.5242   89.7177   12.9454 C.3     0  UNK0        0.1962
     24 C          64.3678   90.7810   12.3068 C.2     0  UNK0        0.2499
     25 O          64.2258   91.2291   11.3195 O.2     0  UNK0       -0.2727
     26 N          65.5514   91.3399   13.0393 N.am    0  UNK0       -0.2727
     27 C          65.8915   90.8356   14.4105 C.3     0  UNK0        0.1255
     28 C          67.0751   91.3946   15.1430 C.3     0  UNK0        0.1636
     29 O          67.9187   92.4578   14.5043 O.3     0  UNK0       -0.3501
     30 C          67.5787   92.9621   13.1332 C.3     0  UNK0        0.1636
     31 C          66.3950   92.4032   12.4006 C.3     0  UNK0        0.1255
     32 C          63.3630   89.6830   14.4363 C.ar    0  UNK0        0.1263
     33 C          63.2532   90.8757   15.3392 C.ar    0  UNK0        0.1979
     34 O          63.1056   90.3793   16.7470 O.2     0  UNK0       -0.4355
     35 C          63.1243   88.8798   16.7141 C.ar    0  UNK0        0.2061
     36 C          63.0049   87.9703   17.9009 C.3     0  UNK0        0.0950
     37 N          63.2834   88.4495   15.2860 N.ar    0  UNK0       -0.2142
@<TRIPOS>BOND
     1    21    22    1
     2    22    19    1
     3    19    20    1
     4    19     1    1
     5     1     2    1
     6     2     3    2
     7     2     4   am
     8     4     5    1
     9     5    10    1
    10    10    11    1
    11    11    12    1
    12    12    13   ar
    13    13    14   ar
    14    14    15   ar
    15    15    16   ar
    16    16    17   ar
    17    17    18    1
    18     5     6    1
    19     6     7    2
    20     6     8   am
    21    23     8    1
    22    23    24    1
    23    24    25    2
    24    24    26   am
    25    26    27    1
    26    27    28    1
    27    28    29    1
    28    29    30    1
    29    30    31    1
    30    23    32    1
    31    32    33   ar
    32    33    34   ar
    33    34    35   ar
    34    35    36    1
    35    35    37   ar
    36     1     8    1
    37    31    26    1
    38    37    32   ar
    39    18    10    1
    40    17    12   ar
    41     4     9    1
