@<TRIPOS>MOLECULE
*****
 30 33 0 0 0
SMALL
GASTEIGER

@<TRIPOS>ATOM
      1 C          63.6727   89.8869   15.6501 C.2     1  UNL1        0.2474
      2 O          62.3629   89.3025   16.0898 O.2     1  UNL1       -0.2729
      3 N          64.6345   89.0567   14.8530 N.am    1  UNL1       -0.2665
      4 H          65.4941   89.4402   14.5644 H       1  UNL1        0.1564
      5 C          64.2867   87.6420   14.4954 C.ar    1  UNL1        0.1560
      6 C          64.6934   86.5178   15.4014 C.ar    1  UNL1        0.0379
      7 C          64.3456   85.1031   15.0438 C.ar    1  UNL1        0.0239
      8 C          63.5911   84.8128   13.7802 C.ar    1  UNL1        0.1045
      9 N          63.1845   85.9370   12.8743 N.ar    1  UNL1       -0.1467
     10 N          63.5323   87.3516   13.2319 N.ar    1  UNL1       -0.1328
     11 C          63.2434   83.3981   13.4227 C.ar    1  UNL1        0.0408
     12 C          62.7502   82.4566   14.4811 C.ar    1  UNL1        0.1005
     13 N          62.4024   81.0419   14.1236 N.ar    1  UNL1       -0.2399
     14 C          62.5478   80.5689   12.7075 C.ar    1  UNL1        0.1284
     15 C          63.0410   81.5104   11.6491 C.ar    1  UNL1        0.1593
     16 F          63.1864   81.0373   10.2331 F       1  UNL1       -0.2025
     17 C          63.3888   82.9250   12.0067 C.ar    1  UNL1        0.0344
     18 C          64.0205   91.3015   16.0077 C.3     1  UNL1        0.1775
     19 C          64.6763   92.0795   10.1725 C.3     1  UNL1        0.1235
     20 N          65.2167   92.2192   11.5648 N.am    1  UNL1       -0.2203
     21 C          66.5441   92.8083   11.9403 C.2     1  UNL1        0.2524
     22 O          67.5641   93.3612   10.9896 O.2     1  UNL1       -0.2698
     23 C          66.6725   92.7474   13.4336 C.2     1  UNL1        0.0496
     24 C          65.4245   92.1207   13.9809 C.2     1  UNL1        0.1032
     25 C          64.5247   91.7942   12.8260 C.2     1  UNL1        0.2683
     26 O          63.1708   91.1550   12.9163 O.2     1  UNL1       -0.2681
     27 N          65.2685   91.9283   15.4604 N.pl3   1  UNL1       -0.2964
     28 C          66.3606   92.3626   16.3924 C.3     1  UNL1        0.0917
     29 C          67.6086   92.9893   15.8450 C.3     1  UNL1        0.0263
     30 C          67.7646   93.1817   14.3656 C.3     1  UNL1        0.0342
@<TRIPOS>BOND
     1    19    20    1
     2    20    21   am
     3    21    22    2
     4    21    23    1
     5    23    24    2
     6    24    25    1
     7    25    26    2
     8    24    27    1
     9    27    18    1
    10    18     1    1
    11     1     2    2
    12     1     3   am
    13     3     5    1
    14     5     6   ar
    15     6     7   ar
    16     7     8   ar
    17     8    11    1
    18    11    12   ar
    19    12    13   ar
    20    13    14   ar
    21    14    15   ar
    22    15    16    1
    23    15    17   ar
    24     8     9   ar
    25     9    10   ar
    26    27    28    1
    27    28    29    1
    28    29    30    1
    29    25    20   am
    30    10     5   ar
    31    30    23    1
    32    17    11   ar
    33     3     4    1
@<TRIPOS>MOLECULE
*****
 30 33 0 0 0
SMALL
GASTEIGER

@<TRIPOS>ATOM
      1 C          62.9861   89.7590   12.6384 C.2     1  UNL1        0.2474
      2 O          61.8394   89.2217   11.8343 O.2     1  UNL1       -0.2729
      3 N          63.8707   88.8199   13.4035 N.am    1  UNL1       -0.2665
      4 H          64.6233   89.1726   13.9313 H       1  UNL1        0.1564
      5 C          63.6088   87.3435   13.3645 C.ar    1  UNL1        0.1560
      6 C          64.1879   86.4508   14.4219 C.ar    1  UNL1        0.0379
      7 C          63.9260   84.9744   14.3829 C.ar    1  UNL1        0.0239
      8 C          63.0849   84.3906   13.2866 C.ar    1  UNL1        0.1045
      9 N          62.5059   85.2832   12.2293 N.ar    1  UNL1       -0.1467
     10 N          62.7678   86.7596   12.2683 N.ar    1  UNL1       -0.1328
     11 C          62.8230   82.9141   13.2476 C.ar    1  UNL1        0.0408
     12 C          62.4227   82.1901   14.4989 C.ar    1  UNL1        0.1005
     13 N          62.1608   80.7137   14.4599 N.ar    1  UNL1       -0.2399
     14 C          62.2992   79.9613   13.1697 C.ar    1  UNL1        0.1284
     15 C          62.6994   80.6852   11.9184 C.ar    1  UNL1        0.1593
     16 F          62.8377   79.9328   10.6282 F       1  UNL1       -0.2025
     17 C          62.9613   82.1617   11.9574 C.ar    1  UNL1        0.0344
     18 C          63.2480   91.2354   12.6774 C.3     1  UNL1        0.1775
     19 C          67.4137   91.9922   16.8198 C.3     1  UNL1        0.1235
     20 N          66.9847   92.0823   15.3852 N.am    1  UNL1       -0.2203
     21 C          67.8269   92.5655   14.2418 C.2     1  UNL1        0.2524
     22 O          69.2458   93.0434   14.3322 O.2     1  UNL1       -0.2698
     23 C          67.0010   92.4869   12.9921 C.2     1  UNL1        0.0496
     24 C          65.6484   91.9551   13.3631 C.2     1  UNL1        0.1032
     25 C          65.6383   91.7050   14.8422 C.2     1  UNL1        0.2683
     26 O          64.4845   91.1715   15.6383 O.2     1  UNL1       -0.2681
     27 N          64.6006   91.7672   12.3063 N.pl3   1  UNL1       -0.2964
     28 C          64.9054   92.1111   10.8785 C.3     1  UNL1        0.0917
     29 C          66.2580   92.6429   10.5075 C.3     1  UNL1        0.0263
     30 C          67.3058   92.8308   11.5643 C.3     1  UNL1        0.0342
@<TRIPOS>BOND
     1    19    20    1
     2    20    21   am
     3    21    22    2
     4    21    23    1
     5    23    24    2
     6    24    25    1
     7    25    26    2
     8    24    27    1
     9    27    18    1
    10    18     1    1
    11     1     2    2
    12     1     3   am
    13     3     5    1
    14     5     6   ar
    15     6     7   ar
    16     7     8   ar
    17     8    11    1
    18    11    12   ar
    19    12    13   ar
    20    13    14   ar
    21    14    15   ar
    22    15    16    1
    23    15    17   ar
    24     8     9   ar
    25     9    10   ar
    26    27    28    1
    27    28    29    1
    28    29    30    1
    29    25    20   am
    30    10     5   ar
    31    30    23    1
    32    17    11   ar
    33     3     4    1
@<TRIPOS>MOLECULE
*****
 30 33 0 0 0
SMALL
GASTEIGER

@<TRIPOS>ATOM
      1 C          62.6617   89.1889   10.9969 C.2     1  UNL1        0.2474
      2 O          62.1966   88.4924    9.7524 O.2     1  UNL1       -0.2729
      3 N          63.0529   88.3877   12.2031 N.am    1  UNL1       -0.2665
      4 H          63.3582   88.8448   13.0199 H       1  UNL1        0.1564
      5 C          62.9791   86.8900   12.1649 C.ar    1  UNL1        0.1560
      6 C          62.4343   86.1966   10.9514 C.ar    1  UNL1        0.0379
      7 C          62.3604   84.6989   10.9133 C.ar    1  UNL1        0.0239
      8 C          62.8315   83.8946   12.0885 C.ar    1  UNL1        0.1045
      9 N          63.3763   84.5880   13.3019 N.ar    1  UNL1       -0.1467
     10 N          63.4501   86.0857   13.3401 N.ar    1  UNL1       -0.1328
     11 C          62.7577   82.3969   12.0503 C.ar    1  UNL1        0.0408
     12 C          62.4313   81.6300   13.2976 C.ar    1  UNL1        0.1005
     13 N          62.3575   80.1323   13.2594 N.ar    1  UNL1       -0.2399
     14 C          62.6101   79.4015   11.9740 C.ar    1  UNL1        0.1284
     15 C          62.9364   80.1684   10.7269 C.ar    1  UNL1        0.1593
     16 F          63.1890   79.4376    9.4414 F       1  UNL1       -0.2025
     17 C          63.0103   81.6661   10.7650 C.ar    1  UNL1        0.0344
     18 C          62.7355   90.6866   11.0351 C.3     1  UNL1        0.1775
     19 C          63.8786   90.7868   16.8462 C.3     1  UNL1        0.1235
     20 N          64.2673   91.1551   15.4449 N.am    1  UNL1       -0.2203
     21 C          65.4936   91.9193   15.0421 C.2     1  UNL1        0.2524
     22 O          66.5464   92.4495   15.9697 O.2     1  UNL1       -0.2698
     23 C          65.4822   92.0604   13.5488 C.2     1  UNL1        0.0496
     24 C          64.2489   91.3833   13.0287 C.2     1  UNL1        0.1032
     25 C          63.4980   90.8238   14.2006 C.2     1  UNL1        0.2683
     26 O          62.2050   90.0661   14.1389 O.2     1  UNL1       -0.2681
     27 N          63.9689   91.3637   11.5552 N.pl3   1  UNL1       -0.2964
     28 C          64.9221   92.0211   10.6018 C.3     1  UNL1        0.0917
     29 C          66.1554   92.6982   11.1219 C.3     1  UNL1        0.0263
     30 C          66.4354   92.7178   12.5954 C.3     1  UNL1        0.0342
@<TRIPOS>BOND
     1    19    20    1
     2    20    21   am
     3    21    22    2
     4    21    23    1
     5    23    24    2
     6    24    25    1
     7    25    26    2
     8    24    27    1
     9    27    18    1
    10    18     1    1
    11     1     2    2
    12     1     3   am
    13     3     5    1
    14     5     6   ar
    15     6     7   ar
    16     7     8   ar
    17     8    11    1
    18    11    12   ar
    19    12    13   ar
    20    13    14   ar
    21    14    15   ar
    22    15    16    1
    23    15    17   ar
    24     8     9   ar
    25     9    10   ar
    26    27    28    1
    27    28    29    1
    28    29    30    1
    29    25    20   am
    30    10     5   ar
    31    30    23    1
    32    17    11   ar
    33     3     4    1
@<TRIPOS>MOLECULE
*****
 30 33 0 0 0
SMALL
GASTEIGER

@<TRIPOS>ATOM
      1 C          62.0575   88.4206   12.0074 C.2     1  UNL1        0.2474
      2 O          60.8652   87.8203   11.3231 O.2     1  UNL1       -0.2729
      3 N          63.1591   87.5348   12.5091 N.am    1  UNL1       -0.2665
      4 H          63.9416   87.9288   12.9582 H       1  UNL1        0.1564
      5 C          63.0685   86.0487   12.3266 C.ar    1  UNL1        0.1560
      6 C          62.9029   85.4706   10.9524 C.ar    1  UNL1        0.0379
      7 C          62.8124   83.9844   10.7699 C.ar    1  UNL1        0.0239
      8 C          62.8874   83.0765   11.9616 C.ar    1  UNL1        0.1045
      9 N          63.0530   83.6547   13.3357 N.ar    1  UNL1       -0.1467
     10 N          63.1435   85.1408   13.5182 N.ar    1  UNL1       -0.1328
     11 C          62.7968   81.5904   11.7791 C.ar    1  UNL1        0.0408
     12 C          62.4319   80.7131   12.9399 C.ar    1  UNL1        0.1005
     13 N          62.3413   79.2270   12.7574 N.ar    1  UNL1       -0.2399
     14 C          62.6157   78.6182   11.4142 C.ar    1  UNL1        0.1284
     15 C          62.9806   79.4955   10.2535 C.ar    1  UNL1        0.1593
     16 F          63.2550   78.8867    8.9103 F       1  UNL1       -0.2025
     17 C          63.0712   80.9816   10.4360 C.ar    1  UNL1        0.0344
     18 C          62.1480   89.9067   12.1898 C.3     1  UNL1        0.1775
     19 C          66.3334   93.5454   10.1096 C.3     1  UNL1        0.1235
     20 N          65.7087   92.8179   11.2632 N.am    1  UNL1       -0.2203
     21 C          66.1743   92.8602   12.6885 C.2     1  UNL1        0.2524
     22 O          67.3462   93.6374   13.2105 O.2     1  UNL1       -0.2698
     23 C          65.2622   91.9888   13.5001 C.2     1  UNL1        0.0496
     24 C          64.2329   91.4080   12.5765 C.2     1  UNL1        0.1032
     25 C          64.5089   91.9204   11.1939 C.2     1  UNL1        0.2683
     26 O          63.7230   91.5928    9.9590 O.2     1  UNL1       -0.2681
     27 N          63.1773   90.4875   13.1136 N.pl3   1  UNL1       -0.2964
     28 C          63.1510   90.1479   14.5744 C.3     1  UNL1        0.0917
     29 C          64.1803   90.7288   15.4980 C.3     1  UNL1        0.0263
     30 C          65.2359   91.6492   14.9609 C.3     1  UNL1        0.0342
@<TRIPOS>BOND
     1    19    20    1
     2    20    21   am
     3    21    22    2
     4    21    23    1
     5    23    24    2
     6    24    25    1
     7    25    26    2
     8    24    27    1
     9    27    18    1
    10    18     1    1
    11     1     2    2
    12     1     3   am
    13     3     5    1
    14     5     6   ar
    15     6     7   ar
    16     7     8   ar
    17     8    11    1
    18    11    12   ar
    19    12    13   ar
    20    13    14   ar
    21    14    15   ar
    22    15    16    1
    23    15    17   ar
    24     8     9   ar
    25     9    10   ar
    26    27    28    1
    27    28    29    1
    28    29    30    1
    29    25    20   am
    30    10     5   ar
    31    30    23    1
    32    17    11   ar
    33     3     4    1
@<TRIPOS>MOLECULE
*****
 30 33 0 0 0
SMALL
GASTEIGER

@<TRIPOS>ATOM
      1 C          60.7257   88.9364   12.0325 C.2     1  UNL1        0.2474
      2 O          60.3772   89.7378   13.2517 O.2     1  UNL1       -0.2729
      3 N          62.1455   88.8810   11.5520 N.am    1  UNL1       -0.2665
      4 H          62.3742   88.3550   10.7518 H       1  UNL1        0.1564
      5 C          63.2169   89.6270   12.2906 C.ar    1  UNL1        0.1560
      6 C          63.7847   89.0633   13.5595 C.ar    1  UNL1        0.0379
      7 C          64.8561   89.8093   14.2981 C.ar    1  UNL1        0.0239
      8 C          65.3598   91.1190   13.7678 C.ar    1  UNL1        0.1045
      9 N          64.7921   91.6826   12.4990 N.ar    1  UNL1       -0.1467
     10 N          63.7207   90.9366   11.7604 N.ar    1  UNL1       -0.1328
     11 C          66.4312   91.8649   14.5064 C.ar    1  UNL1        0.0408
     12 C          66.0951   92.6109   15.7637 C.ar    1  UNL1        0.1005
     13 N          67.1666   93.3568   16.5024 N.ar    1  UNL1       -0.2399
     14 C          68.5741   93.3569   15.9837 C.ar    1  UNL1        0.1284
     15 C          68.9101   92.6110   14.7265 C.ar    1  UNL1        0.1593
     16 F          70.3176   92.6111   14.2078 F       1  UNL1       -0.2025
     17 C          67.8387   91.8650   13.9878 C.ar    1  UNL1        0.0344
     18 C          59.6543   88.1904   11.2939 C.3     1  UNL1        0.1775
     19 C          63.6496   83.9568   10.1991 C.3     1  UNL1        0.1235
     20 N          62.6197   84.9246    9.6962 N.am    1  UNL1       -0.2203
     21 C          62.2121   85.1137    8.2650 C.2     1  UNL1        0.2524
     22 O          62.7628   84.3684    7.0856 O.2     1  UNL1       -0.2698
     23 C          61.1571   86.1791    8.2204 C.2     1  UNL1        0.0496
     24 C          60.9127   86.6484    9.6240 C.2     1  UNL1        0.1032
     25 C          61.8167   85.8731   10.5361 C.2     1  UNL1        0.2683
     26 O          61.9025   86.0204   12.0263 O.2     1  UNL1       -0.2681
     27 N          59.8986   87.7211    9.8902 N.pl3   1  UNL1       -0.2964
     28 C          59.1290   88.3245    8.7530 C.3     1  UNL1        0.0917
     29 C          59.3734   87.8552    7.3494 C.3     1  UNL1        0.0263
     30 C          60.3875   86.7825    7.0832 C.3     1  UNL1        0.0342
@<TRIPOS>BOND
     1    19    20    1
     2    20    21   am
     3    21    22    2
     4    21    23    1
     5    23    24    2
     6    24    25    1
     7    25    26    2
     8    24    27    1
     9    27    18    1
    10    18     1    1
    11     1     2    2
    12     1     3   am
    13     3     5    1
    14     5     6   ar
    15     6     7   ar
    16     7     8   ar
    17     8    11    1
    18    11    12   ar
    19    12    13   ar
    20    13    14   ar
    21    14    15   ar
    22    15    16    1
    23    15    17   ar
    24     8     9   ar
    25     9    10   ar
    26    27    28    1
    27    28    29    1
    28    29    30    1
    29    25    20   am
    30    10     5   ar
    31    30    23    1
    32    17    11   ar
    33     3     4    1
