@<TRIPOS>MOLECULE
*****
 33 37 0 0 0
SMALL
GASTEIGER

@<TRIPOS>ATOM
      1 N          63.8303   84.9704   13.4827 N.ar    1  UNL1       -0.2444
      2 C          64.3818   86.1768   14.1830 C.ar    1  UNL1        0.2659
      3 O          65.2984   86.0081   15.3583 O.2     1  UNL1       -0.2668
      4 C          64.0167   87.5520   13.7080 C.ar    1  UNL1        0.0735
      5 C          64.5682   88.7584   14.4083 C.ar    1  UNL1        0.0261
      6 C          64.2031   90.1335   13.9333 C.ar    1  UNL1        0.1222
      7 C          63.2865   90.3023   12.7580 C.ar    1  UNL1        0.0214
      8 C          62.7350   89.0959   12.0577 C.ar    1  UNL1        0.0188
      9 C          63.1001   87.7208   12.5327 C.ar    1  UNL1        0.0685
     10 N          62.5486   86.5143   11.8324 N.ar    1  UNL1       -0.2810
     11 C          62.9137   85.1392   12.3074 C.ar    1  UNL1        0.3340
     12 O          62.3622   83.9327   11.6071 O.2     1  UNL1       -0.2462
     13 S          64.7546   91.3400   14.6336 S.O2    1  UNL1        0.0601
     14 O          66.0188   91.2260   13.8344 O.2     1  UNL1       -0.1530
     15 O          63.4904   91.4540   15.4329 O.2     1  UNL1       -0.1530
     16 N          65.3061   92.5464   15.3339 N.3     1  UNL1       -0.1820
     17 H          65.2548   92.3551   16.3345 H       1  UNL1        0.1487
     18 C          66.7070   93.0025   15.0514 C.3     1  UNL1        0.0622
     19 C          66.4790   93.7755   13.7863 C.3     1  UNL1        0.0175
     20 C          68.1869   93.1901   15.2083 C.3     1  UNL1        0.0175
     21 C          67.4212   92.3878   16.2184 C.3     1  UNL1        0.0175
     22 C          64.1954   83.5952   13.9577 C.3     1  UNL1        0.1434
     23 C          59.9519   80.4657   14.2389 C.3     1  UNL1        0.1537
     24 N          61.2991   81.0128   13.8705 N.ar    1  UNL1       -0.2476
     25 C          61.8926   82.2997   14.3621 C.ar    1  UNL1        0.0943
     26 C          63.2496   82.4513   13.7412 C.ar    1  UNL1        0.0403
     27 C          63.4948   81.2581   12.8658 C.ar    1  UNL1        0.1193
     28 N          62.2893   80.3691   12.9457 N.ar    1  UNL1       -0.1679
     29 C          61.6320   86.6831   10.6570 C.3     1  UNL1        0.1155
     30 C          61.9792   86.0564    9.3391 C.3     1  UNL1        0.0819
     31 C          63.1734   85.3335    8.7902 C.3     1  UNL1        0.1465
     32 O          62.4701   85.1703    7.4753 O.3     1  UNL1       -0.3535
     33 C          61.2760   85.8932    8.0243 C.3     1  UNL1        0.1465
@<TRIPOS>BOND
     1    23    24    1
     2    24    25   ar
     3    25    26   ar
     4    26    22    1
     5    22     1    1
     6     1     2   ar
     7     2     3    2
     8     2     4   ar
     9     4     5   ar
    10     5     6   ar
    11     6    13    1
    12    13    14    2
    13    13    15    2
    14    13    16    1
    15    16    18    1
    16    18    19    1
    17    18    20    1
    18    20    21    1
    19     6     7   ar
    20     7     8   ar
    21     8     9   ar
    22     9    10   ar
    23    10    29    1
    24    29    30    1
    25    30    31    1
    26    31    32    1
    27    32    33    1
    28    10    11   ar
    29    11    12    2
    30    26    27   ar
    31    27    28   ar
    32    28    24   ar
    33    11     1   ar
    34     9     4   ar
    35    33    30    1
    36    21    18    1
    37    16    17    1
@<TRIPOS>MOLECULE
*****
 33 37 0 0 0
SMALL
GASTEIGER

@<TRIPOS>ATOM
      1 N          63.2058   85.6303   12.9929 N.ar    1  UNL1       -0.2444
      2 C          63.9543   86.5745   13.8862 C.ar    1  UNL1        0.2659
      3 O          64.7223   86.0455   15.0611 O.2     1  UNL1       -0.2668
      4 C          63.9349   88.0478   13.6047 C.ar    1  UNL1        0.0735
      5 C          64.6835   88.9920   14.4981 C.ar    1  UNL1        0.0261
      6 C          64.6641   90.4651   14.2165 C.ar    1  UNL1        0.1222
      7 C          63.8961   90.9941   13.0416 C.ar    1  UNL1        0.0214
      8 C          63.1475   90.0500   12.1483 C.ar    1  UNL1        0.0188
      9 C          63.1670   88.5768   12.4298 C.ar    1  UNL1        0.0685
     10 N          62.4184   87.6325   11.5364 N.ar    1  UNL1       -0.2810
     11 C          62.4378   86.1593   11.8180 C.ar    1  UNL1        0.3340
     12 O          61.6892   85.2150   10.9246 O.2     1  UNL1       -0.2462
     13 S          65.4126   91.4094   15.1099 S.O2    1  UNL1        0.0601
     14 O          64.1145   91.8987   15.6804 O.2     1  UNL1       -0.1530
     15 O          66.7107   90.9202   14.5394 O.2     1  UNL1       -0.1530
     16 N          66.1611   92.3537   16.0033 N.3     1  UNL1       -0.1820
     17 H          66.4360   91.8221   16.8293 H       1  UNL1        0.1487
     18 C          67.3956   93.0420   15.5008 C.3     1  UNL1        0.0622
     19 C          66.8050   93.8565   14.3883 C.3     1  UNL1        0.0175
     20 C          68.8351   93.4474   15.3847 C.3     1  UNL1        0.0175
     21 C          68.4148   92.4664   16.4389 C.3     1  UNL1        0.0175
     22 C          63.2252   84.1570   13.2744 C.3     1  UNL1        0.1434
     23 C          62.8879   79.9648   10.0820 C.3     1  UNL1        0.1537
     24 N          63.3362   81.2577   10.6963 N.ar    1  UNL1       -0.2476
     25 C          62.7343   81.9164   11.9021 C.ar    1  UNL1        0.0943
     26 C          63.4912   83.1847   12.1637 C.ar    1  UNL1        0.0403
     27 C          64.5609   83.3099   11.1196 C.ar    1  UNL1        0.1193
     28 N          64.4652   82.1190   10.2127 N.ar    1  UNL1       -0.1679
     29 C          61.6504   88.1615   10.3615 C.3     1  UNL1        0.1155
     30 C          60.6187   89.2321   10.5604 C.3     1  UNL1        0.0819
     31 C          59.6235   89.5599   11.6338 C.3     1  UNL1        0.1465
     32 O          59.1598   90.7462   10.8416 O.3     1  UNL1       -0.3535
     33 C          60.1550   90.4184    9.7682 C.3     1  UNL1        0.1465
@<TRIPOS>BOND
     1    23    24    1
     2    24    25   ar
     3    25    26   ar
     4    26    22    1
     5    22     1    1
     6     1     2   ar
     7     2     3    2
     8     2     4   ar
     9     4     5   ar
    10     5     6   ar
    11     6    13    1
    12    13    14    2
    13    13    15    2
    14    13    16    1
    15    16    18    1
    16    18    19    1
    17    18    20    1
    18    20    21    1
    19     6     7   ar
    20     7     8   ar
    21     8     9   ar
    22     9    10   ar
    23    10    29    1
    24    29    30    1
    25    30    31    1
    26    31    32    1
    27    32    33    1
    28    10    11   ar
    29    11    12    2
    30    26    27   ar
    31    27    28   ar
    32    28    24   ar
    33    11     1   ar
    34     9     4   ar
    35    33    30    1
    36    21    18    1
    37    16    17    1
@<TRIPOS>MOLECULE
*****
 33 37 0 0 0
SMALL
GASTEIGER

@<TRIPOS>ATOM
      1 N          62.6988   85.9224   12.4300 N.ar    1  UNL1       -0.2444
      2 C          63.5168   86.9394   13.1692 C.ar    1  UNL1        0.2659
      3 O          64.3467   86.5221   14.3469 O.2     1  UNL1       -0.2668
      4 C          63.5049   88.3739   12.7306 C.ar    1  UNL1        0.0735
      5 C          64.3229   89.3909   13.4698 C.ar    1  UNL1        0.0261
      6 C          64.3110   90.8253   13.0313 C.ar    1  UNL1        0.1222
      7 C          63.4810   91.2427   11.8536 C.ar    1  UNL1        0.0214
      8 C          62.6630   90.2256   11.1144 C.ar    1  UNL1        0.0188
      9 C          62.6749   88.7913   11.5529 C.ar    1  UNL1        0.0685
     10 N          61.8569   87.7741   10.8137 N.ar    1  UNL1       -0.2810
     11 C          61.8688   86.3398   11.2522 C.ar    1  UNL1        0.3340
     12 O          61.0508   85.3226   10.5130 O.2     1  UNL1       -0.2462
     13 S          65.1290   91.8424   13.7705 S.O2    1  UNL1        0.0601
     14 O          65.1508   90.9493   14.9753 O.2     1  UNL1       -0.1530
     15 O          65.1073   92.7356   12.5657 O.2     1  UNL1       -0.1530
     16 N          65.9470   92.8595   14.5097 N.3     1  UNL1       -0.1820
     17 H          65.4524   93.0598   15.3789 H       1  UNL1        0.1487
     18 C          67.3678   92.5533   14.8807 C.3     1  UNL1        0.0622
     19 C          67.8595   91.9859   13.5821 C.3     1  UNL1        0.0175
     20 C          68.6178   92.4441   15.7026 C.3     1  UNL1        0.0175
     21 C          67.3694   93.0143   16.3080 C.3     1  UNL1        0.0175
     22 C          62.7106   84.4879   12.8685 C.3     1  UNL1        0.1434
     23 C          63.0381   79.9429   10.2010 C.3     1  UNL1        0.1537
     24 N          63.3230   81.3294   10.6973 N.ar    1  UNL1       -0.2476
     25 C          62.5376   82.0724   11.7372 C.ar    1  UNL1        0.0943
     26 C          63.1724   83.4186   11.9234 C.ar    1  UNL1        0.0403
     27 C          64.3501   83.5076   10.9987 C.ar    1  UNL1        0.1193
     28 N          64.4432   82.2165   10.2409 N.ar    1  UNL1       -0.1679
     29 C          61.0269   88.1915    9.6360 C.3     1  UNL1        0.1155
     30 C          60.5462   87.1633    8.6552 C.3     1  UNL1        0.0819
     31 C          59.2068   86.7556    8.1169 C.3     1  UNL1        0.1465
     32 O          59.8664   85.7094    7.2682 O.3     1  UNL1       -0.3535
     33 C          61.2058   86.1171    7.8065 C.3     1  UNL1        0.1465
@<TRIPOS>BOND
     1    23    24    1
     2    24    25   ar
     3    25    26   ar
     4    26    22    1
     5    22     1    1
     6     1     2   ar
     7     2     3    2
     8     2     4   ar
     9     4     5   ar
    10     5     6   ar
    11     6    13    1
    12    13    14    2
    13    13    15    2
    14    13    16    1
    15    16    18    1
    16    18    19    1
    17    18    20    1
    18    20    21    1
    19     6     7   ar
    20     7     8   ar
    21     8     9   ar
    22     9    10   ar
    23    10    29    1
    24    29    30    1
    25    30    31    1
    26    31    32    1
    27    32    33    1
    28    10    11   ar
    29    11    12    2
    30    26    27   ar
    31    27    28   ar
    32    28    24   ar
    33    11     1   ar
    34     9     4   ar
    35    33    30    1
    36    21    18    1
    37    16    17    1
@<TRIPOS>MOLECULE
*****
 33 37 0 0 0
SMALL
GASTEIGER

@<TRIPOS>ATOM
      1 N          63.3467   89.6945   12.8740 N.ar    1  UNL1       -0.2444
      2 C          63.5769   88.2988   13.3730 C.ar    1  UNL1        0.2659
      3 O          64.1937   88.0768   14.7222 O.2     1  UNL1       -0.2668
      4 C          63.1904   87.1250   12.5227 C.ar    1  UNL1        0.0735
      5 C          63.4206   85.7293   13.0217 C.ar    1  UNL1        0.0261
      6 C          63.0341   84.5556   12.1715 C.ar    1  UNL1        0.1222
      7 C          62.4173   84.7776   10.8223 C.ar    1  UNL1        0.0214
      8 C          62.1871   86.1733   10.3233 C.ar    1  UNL1        0.0188
      9 C          62.5737   87.3470   11.1735 C.ar    1  UNL1        0.0685
     10 N          62.3434   88.7428   10.6746 N.ar    1  UNL1       -0.2810
     11 C          62.7300   89.9165   11.5248 C.ar    1  UNL1        0.3340
     12 O          62.4998   91.3122   11.0258 O.2     1  UNL1       -0.2462
     13 S          63.2643   83.1598   12.6705 S.O2    1  UNL1        0.0601
     14 O          64.0021   83.7057   13.8568 O.2     1  UNL1       -0.1530
     15 O          62.5264   82.6140   11.4841 O.2     1  UNL1       -0.1530
     16 N          63.4945   81.7641   13.1694 N.3     1  UNL1       -0.1820
     17 H          64.0447   81.8442   14.0246 H       1  UNL1        0.1487
     18 C          62.3259   80.8791   13.4876 C.3     1  UNL1        0.0622
     19 C          62.6653   79.6863   12.6438 C.3     1  UNL1        0.0175
     20 C          61.0395   80.4082   14.0988 C.3     1  UNL1        0.0175
     21 C          61.5808   81.7646   14.4419 C.3     1  UNL1        0.0175
     22 C          63.7332   90.8683   13.7243 C.3     1  UNL1        0.1434
     23 C          68.7243   92.2748   14.7200 C.3     1  UNL1        0.1537
     24 N          67.3925   92.1215   14.0470 N.ar    1  UNL1       -0.2476
     25 C          66.2137   91.3671   14.5865 C.ar    1  UNL1        0.0943
     26 C          65.0984   91.4750   13.5893 C.ar    1  UNL1        0.0403
     27 C          65.5880   92.2961   12.4334 C.ar    1  UNL1        0.1193
     28 N          67.0058   92.6957   12.7162 N.ar    1  UNL1       -0.1679
     29 C          61.7267   88.9647    9.3254 C.3     1  UNL1        0.1155
     30 C          60.4585   88.2547    8.9545 C.3     1  UNL1        0.0819
     31 C          59.9301   87.6085    7.7081 C.3     1  UNL1        0.1465
     32 O          58.6649   87.2506    8.4300 O.3     1  UNL1       -0.3535
     33 C          59.1933   87.8968    9.6764 C.3     1  UNL1        0.1465
@<TRIPOS>BOND
     1    23    24    1
     2    24    25   ar
     3    25    26   ar
     4    26    22    1
     5    22     1    1
     6     1     2   ar
     7     2     3    2
     8     2     4   ar
     9     4     5   ar
    10     5     6   ar
    11     6    13    1
    12    13    14    2
    13    13    15    2
    14    13    16    1
    15    16    18    1
    16    18    19    1
    17    18    20    1
    18    20    21    1
    19     6     7   ar
    20     7     8   ar
    21     8     9   ar
    22     9    10   ar
    23    10    29    1
    24    29    30    1
    25    30    31    1
    26    31    32    1
    27    32    33    1
    28    10    11   ar
    29    11    12    2
    30    26    27   ar
    31    27    28   ar
    32    28    24   ar
    33    11     1   ar
    34     9     4   ar
    35    33    30    1
    36    21    18    1
    37    16    17    1
@<TRIPOS>MOLECULE
*****
 33 37 0 0 0
SMALL
GASTEIGER

@<TRIPOS>ATOM
      1 N          61.9796   87.1371   10.8279 N.ar    1  UNL1       -0.2444
      2 C          62.4480   88.4904   11.2742 C.ar    1  UNL1        0.2659
      3 O          62.1237   89.7042   10.4548 O.2     1  UNL1       -0.2668
      4 C          63.2409   88.6299   12.5400 C.ar    1  UNL1        0.0735
      5 C          63.7093   89.9831   12.9862 C.ar    1  UNL1        0.0261
      6 C          64.5021   90.1225   14.2519 C.ar    1  UNL1        0.1222
      7 C          64.8264   88.9087   15.0713 C.ar    1  UNL1        0.0214
      8 C          64.3579   87.5555   14.6251 C.ar    1  UNL1        0.0188
      9 C          63.5652   87.4160   13.3594 C.ar    1  UNL1        0.0685
     10 N          63.0967   86.0627   12.9130 N.ar    1  UNL1       -0.2810
     11 C          62.3039   85.9233   11.6473 C.ar    1  UNL1        0.3340
     12 O          61.8354   84.5700   11.2010 O.2     1  UNL1       -0.2462
     13 S          64.9706   91.4759   14.6982 S.O2    1  UNL1        0.0601
     14 O          65.8991   91.5423   13.5220 O.2     1  UNL1       -0.1530
     15 O          64.0422   91.4094   15.8745 O.2     1  UNL1       -0.1530
     16 N          65.4391   92.8291   15.1445 N.3     1  UNL1       -0.1820
     17 H          65.1833   92.9198   16.1278 H       1  UNL1        0.1487
     18 C          66.8907   93.1926   15.0394 C.3     1  UNL1        0.0622
     19 C          66.8343   94.1612   13.8955 C.3     1  UNL1        0.0175
     20 C          68.3617   93.2197   15.3315 C.3     1  UNL1        0.0175
     21 C          67.4509   92.3501   16.1468 C.3     1  UNL1        0.0175
     22 C          61.1867   86.9977    9.5622 C.3     1  UNL1        0.1434
     23 C          61.3317   84.0062    5.2136 C.3     1  UNL1        0.1537
     24 N          61.7381   84.7163    6.4708 N.ar    1  UNL1       -0.2476
     25 C          60.8574   85.5904    7.3136 C.ar    1  UNL1        0.0943
     26 C          61.6714   86.0914    8.4696 C.ar    1  UNL1        0.0403
     27 C          63.0552   85.5269    8.3413 C.ar    1  UNL1        0.1193
     28 N          63.0964   84.6770    7.1059 N.ar    1  UNL1       -0.1679
     29 C          63.4210   84.8489   13.7325 C.3     1  UNL1        0.1155
     30 C          63.9294   83.6063   13.0634 C.3     1  UNL1        0.0819
     31 C          64.7039   83.3165   11.8119 C.3     1  UNL1        0.1465
     32 O          64.6484   81.8490   12.1174 O.3     1  UNL1       -0.3535
     33 C          63.8740   82.1388   13.3689 C.3     1  UNL1        0.1465
@<TRIPOS>BOND
     1    23    24    1
     2    24    25   ar
     3    25    26   ar
     4    26    22    1
     5    22     1    1
     6     1     2   ar
     7     2     3    2
     8     2     4   ar
     9     4     5   ar
    10     5     6   ar
    11     6    13    1
    12    13    14    2
    13    13    15    2
    14    13    16    1
    15    16    18    1
    16    18    19    1
    17    18    20    1
    18    20    21    1
    19     6     7   ar
    20     7     8   ar
    21     8     9   ar
    22     9    10   ar
    23    10    29    1
    24    29    30    1
    25    30    31    1
    26    31    32    1
    27    32    33    1
    28    10    11   ar
    29    11    12    2
    30    26    27   ar
    31    27    28   ar
    32    28    24   ar
    33    11     1   ar
    34     9     4   ar
    35    33    30    1
    36    21    18    1
    37    16    17    1
@<TRIPOS>MOLECULE
*****
 33 37 0 0 0
SMALL
GASTEIGER

@<TRIPOS>ATOM
      1 N          62.2112   87.5095   11.5960 N.ar    1  UNL1       -0.2444
      2 C          62.6400   88.9161   11.3000 C.ar    1  UNL1        0.2659
      3 O          62.1074   89.6234   10.0892 O.2     1  UNL1       -0.2668
      4 C          63.6013   89.6154   12.2148 C.ar    1  UNL1        0.0735
      5 C          64.0301   91.0220   11.9188 C.ar    1  UNL1        0.0261
      6 C          64.9914   91.7212   12.8337 C.ar    1  UNL1        0.1222
      7 C          65.5239   91.0139   14.0445 C.ar    1  UNL1        0.0214
      8 C          65.0951   89.6073   14.3405 C.ar    1  UNL1        0.0188
      9 C          64.1339   88.9081   13.4257 C.ar    1  UNL1        0.0685
     10 N          63.7050   87.5014   13.7216 N.ar    1  UNL1       -0.2810
     11 C          62.7438   86.8022   12.8068 C.ar    1  UNL1        0.3340
     12 O          62.3150   85.3955   13.1028 O.2     1  UNL1       -0.2462
     13 S          65.4202   93.1279   12.5377 S.O2    1  UNL1        0.0601
     14 O          64.7726   93.0411   11.1875 O.2     1  UNL1       -0.1530
     15 O          66.0677   93.2146   13.8879 O.2     1  UNL1       -0.1530
     16 N          65.8489   94.5345   12.2417 N.3     1  UNL1       -0.1820
     17 H          66.5424   94.7853   12.9463 H       1  UNL1        0.1487
     18 C          66.4457   94.8716   10.9074 C.3     1  UNL1        0.0622
     19 C          65.8028   96.2047   10.6639 C.3     1  UNL1        0.0175
     20 C          67.2658   94.7458    9.6577 C.3     1  UNL1        0.0175
     21 C          67.2959   93.6555   10.6877 C.3     1  UNL1        0.0175
     22 C          61.2499   86.8102   10.6811 C.3     1  UNL1        0.1434
     23 C          61.7044   84.6056    5.9048 C.3     1  UNL1        0.1537
     24 N          61.9741   84.9937    7.3284 N.ar    1  UNL1       -0.2476
     25 C          61.1231   85.8951    8.1729 C.ar    1  UNL1        0.0943
     26 C          61.7652   86.0070    9.5239 C.ar    1  UNL1        0.0403
     27 C          63.0131   85.1747    9.5143 C.ar    1  UNL1        0.1193
     28 N          63.1422   84.5484    8.1575 N.ar    1  UNL1       -0.1679
     29 C          64.2376   86.7941   14.9324 C.3     1  UNL1        0.1155
     30 C          63.3570   86.5897   16.1295 C.3     1  UNL1        0.0819
     31 C          62.8992   87.4512   17.2689 C.3     1  UNL1        0.1465
     32 O          62.1117   86.3007   17.8223 O.3     1  UNL1       -0.3535
     33 C          62.5695   85.4393   16.6829 C.3     1  UNL1        0.1465
@<TRIPOS>BOND
     1    23    24    1
     2    24    25   ar
     3    25    26   ar
     4    26    22    1
     5    22     1    1
     6     1     2   ar
     7     2     3    2
     8     2     4   ar
     9     4     5   ar
    10     5     6   ar
    11     6    13    1
    12    13    14    2
    13    13    15    2
    14    13    16    1
    15    16    18    1
    16    18    19    1
    17    18    20    1
    18    20    21    1
    19     6     7   ar
    20     7     8   ar
    21     8     9   ar
    22     9    10   ar
    23    10    29    1
    24    29    30    1
    25    30    31    1
    26    31    32    1
    27    32    33    1
    28    10    11   ar
    29    11    12    2
    30    26    27   ar
    31    27    28   ar
    32    28    24   ar
    33    11     1   ar
    34     9     4   ar
    35    33    30    1
    36    21    18    1
    37    16    17    1
@<TRIPOS>MOLECULE
*****
 33 37 0 0 0
SMALL
GASTEIGER

@<TRIPOS>ATOM
      1 N          63.1287   86.1569   13.2810 N.ar    1  UNL1       -0.2444
      2 C          63.7824   87.4877   13.5078 C.ar    1  UNL1        0.2659
      3 O          64.6471   87.7027   14.7145 O.2     1  UNL1       -0.2668
      4 C          63.5715   88.6037   12.5279 C.ar    1  UNL1        0.0735
      5 C          64.2253   89.9345   12.7547 C.ar    1  UNL1        0.0261
      6 C          64.0144   91.0504   11.7747 C.ar    1  UNL1        0.1222
      7 C          63.1497   90.8354   10.5680 C.ar    1  UNL1        0.0214
      8 C          62.4960   89.5046   10.3412 C.ar    1  UNL1        0.0188
      9 C          62.7069   88.3887   11.3211 C.ar    1  UNL1        0.0685
     10 N          62.0532   87.0578   11.0944 N.ar    1  UNL1       -0.2810
     11 C          62.2641   85.9419   12.0743 C.ar    1  UNL1        0.3340
     12 O          61.6103   84.6110   11.8475 O.2     1  UNL1       -0.2462
     13 S          64.6681   92.3813   12.0015 S.O2    1  UNL1        0.0601
     14 O          64.4718   92.7242   10.5545 O.2     1  UNL1       -0.1530
     15 O          64.8644   92.0384   13.4485 O.2     1  UNL1       -0.1530
     16 N          65.3218   93.7121   12.2282 N.3     1  UNL1       -0.1820
     17 H          65.7979   93.6568   13.1286 H       1  UNL1        0.1487
     18 C          66.3229   94.2340   11.2404 C.3     1  UNL1        0.0622
     19 C          67.1739   93.0119   11.0618 C.3     1  UNL1        0.0175
     20 C          67.0283   95.1803   10.3148 C.3     1  UNL1        0.0175
     21 C          65.8193   95.6374   11.0762 C.3     1  UNL1        0.0175
     22 C          63.3396   85.0409   14.2610 C.3     1  UNL1        0.1434
     23 C          62.3118   79.9186   13.4952 C.3     1  UNL1        0.1537
     24 N          62.9591   81.2700   13.4242 N.ar    1  UNL1       -0.2476
     25 C          62.4924   82.5092   14.1288 C.ar    1  UNL1        0.0943
     26 C          63.4315   83.6244   13.7762 C.ar    1  UNL1        0.0403
     27 C          64.4786   83.0744   12.8536 C.ar    1  UNL1        0.1193
     28 N          64.1866   81.6193   12.6360 N.ar    1  UNL1       -0.1679
     29 C          61.1885   86.8428    9.8876 C.3     1  UNL1        0.1155
     30 C          61.7007   86.0347    8.7323 C.3     1  UNL1        0.0819
     31 C          62.9915   85.3404    8.4130 C.3     1  UNL1        0.1465
     32 O          62.4249   84.8918    7.0985 O.3     1  UNL1       -0.3535
     33 C          61.1342   85.5861    7.4179 C.3     1  UNL1        0.1465
@<TRIPOS>BOND
     1    23    24    1
     2    24    25   ar
     3    25    26   ar
     4    26    22    1
     5    22     1    1
     6     1     2   ar
     7     2     3    2
     8     2     4   ar
     9     4     5   ar
    10     5     6   ar
    11     6    13    1
    12    13    14    2
    13    13    15    2
    14    13    16    1
    15    16    18    1
    16    18    19    1
    17    18    20    1
    18    20    21    1
    19     6     7   ar
    20     7     8   ar
    21     8     9   ar
    22     9    10   ar
    23    10    29    1
    24    29    30    1
    25    30    31    1
    26    31    32    1
    27    32    33    1
    28    10    11   ar
    29    11    12    2
    30    26    27   ar
    31    27    28   ar
    32    28    24   ar
    33    11     1   ar
    34     9     4   ar
    35    33    30    1
    36    21    18    1
    37    16    17    1
@<TRIPOS>MOLECULE
*****
 33 37 0 0 0
SMALL
GASTEIGER

@<TRIPOS>ATOM
      1 N          63.2929   86.1431   12.2074 N.ar    1  UNL1       -0.2444
      2 C          62.4750   86.2435   10.9541 C.ar    1  UNL1        0.2659
      3 O          62.2881   85.0376   10.0819 O.2     1  UNL1       -0.2668
      4 C          61.8441   87.5499   10.5728 C.ar    1  UNL1        0.0735
      5 C          61.0262   87.6503    9.3195 C.ar    1  UNL1        0.0261
      6 C          60.3952   88.9567    8.9383 C.ar    1  UNL1        0.1222
      7 C          60.5822   90.1626    9.8105 C.ar    1  UNL1        0.0214
      8 C          61.4001   90.0622   11.0639 C.ar    1  UNL1        0.0188
      9 C          62.0310   88.7559   11.4450 C.ar    1  UNL1        0.0685
     10 N          62.8489   88.6554   12.6984 N.ar    1  UNL1       -0.2810
     11 C          63.4799   87.3491   13.0796 C.ar    1  UNL1        0.3340
     12 O          64.2978   87.2487   14.3330 O.2     1  UNL1       -0.2462
     13 S          59.5773   89.0571    7.6849 S.O2    1  UNL1        0.0601
     14 O          59.8934   87.6264    7.3640 O.2     1  UNL1       -0.1530
     15 O          59.2612   90.4878    8.0058 O.2     1  UNL1       -0.1530
     16 N          58.7594   89.1575    6.4316 N.3     1  UNL1       -0.1820
     17 H          57.7835   89.0482    6.7073 H       1  UNL1        0.1487
     18 C          58.8342   90.3929    5.5841 C.3     1  UNL1        0.0622
     19 C          60.3208   90.5055    5.4185 C.3     1  UNL1        0.0175
     20 C          58.3928   91.5892    4.7941 C.3     1  UNL1        0.0175
     21 C          57.3737   90.7093    5.4554 C.3     1  UNL1        0.0175
     22 C          63.9239   84.8367   12.5887 C.3     1  UNL1        0.1434
     23 C          60.9638   80.7515   14.1472 C.3     1  UNL1        0.1537
     24 N          61.8136   81.9874   14.1676 N.ar    1  UNL1       -0.2476
     25 C          62.3987   82.6749   12.9697 C.ar    1  UNL1        0.0943
     26 C          63.1742   83.8652   13.4512 C.ar    1  UNL1        0.0403
     27 C          63.0684   83.9133   14.9467 C.ar    1  UNL1        0.1193
     28 N          62.2275   82.7527   15.3895 N.ar    1  UNL1       -0.1679
     29 C          63.0359   89.8614   13.5706 C.3     1  UNL1        0.1155
     30 C          64.1958   90.7834   13.3370 C.3     1  UNL1        0.0819
     31 C          65.4420   91.1335   14.0950 C.3     1  UNL1        0.1465
     32 O          65.8361   92.0874   13.0065 O.3     1  UNL1       -0.3535
     33 C          64.5900   91.7373   12.2485 C.3     1  UNL1        0.1465
@<TRIPOS>BOND
     1    23    24    1
     2    24    25   ar
     3    25    26   ar
     4    26    22    1
     5    22     1    1
     6     1     2   ar
     7     2     3    2
     8     2     4   ar
     9     4     5   ar
    10     5     6   ar
    11     6    13    1
    12    13    14    2
    13    13    15    2
    14    13    16    1
    15    16    18    1
    16    18    19    1
    17    18    20    1
    18    20    21    1
    19     6     7   ar
    20     7     8   ar
    21     8     9   ar
    22     9    10   ar
    23    10    29    1
    24    29    30    1
    25    30    31    1
    26    31    32    1
    27    32    33    1
    28    10    11   ar
    29    11    12    2
    30    26    27   ar
    31    27    28   ar
    32    28    24   ar
    33    11     1   ar
    34     9     4   ar
    35    33    30    1
    36    21    18    1
    37    16    17    1
@<TRIPOS>MOLECULE
*****
 33 37 0 0 0
SMALL
GASTEIGER

@<TRIPOS>ATOM
      1 N          63.7318   84.7824   13.9153 N.ar    1  UNL1       -0.2444
      2 C          64.2099   86.0057   14.6398 C.ar    1  UNL1        0.2659
      3 O          64.8780   85.8728   15.9762 O.2     1  UNL1       -0.2668
      4 C          64.0198   87.3620   14.0280 C.ar    1  UNL1        0.0735
      5 C          64.4978   88.5853   14.7525 C.ar    1  UNL1        0.0261
      6 C          64.3077   89.9416   14.1406 C.ar    1  UNL1        0.1222
      7 C          63.6395   90.0745   12.8043 C.ar    1  UNL1        0.0214
      8 C          63.1615   88.8512   12.0797 C.ar    1  UNL1        0.0188
      9 C          63.3516   87.4950   12.6916 C.ar    1  UNL1        0.0685
     10 N          62.8735   86.2716   11.9671 N.ar    1  UNL1       -0.2810
     11 C          63.0636   84.9154   12.5790 C.ar    1  UNL1        0.3340
     12 O          62.5856   83.6920   11.8544 O.2     1  UNL1       -0.2462
     13 S          64.7858   91.1650   14.8651 S.O2    1  UNL1        0.0601
     14 O          66.2049   90.8004   14.5442 O.2     1  UNL1       -0.1530
     15 O          63.3666   91.5295   15.1861 O.2     1  UNL1       -0.1530
     16 N          65.2639   92.3883   15.5896 N.3     1  UNL1       -0.1820
     17 H          65.3347   92.1376   16.5758 H       1  UNL1        0.1487
     18 C          66.5687   93.0232   15.2094 C.3     1  UNL1        0.0622
     19 C          67.3558   92.7701   16.4610 C.3     1  UNL1        0.0175
     20 C          67.6001   93.7459   14.3946 C.3     1  UNL1        0.0175
     21 C          66.2346   93.4966   13.8259 C.3     1  UNL1        0.0175
     22 C          63.9219   83.4261   14.5272 C.3     1  UNL1        0.1434
     23 C          62.4256   78.9553   12.1494 C.3     1  UNL1        0.1537
     24 N          62.4031   80.2137   12.9655 N.ar    1  UNL1       -0.2476
     25 C          63.5588   81.1452   13.1816 C.ar    1  UNL1        0.0943
     26 C          63.0909   82.2687   14.0584 C.ar    1  UNL1        0.0403
     27 C          61.6460   82.0315   14.3842 C.ar    1  UNL1        0.1193
     28 N          61.2209   80.7615   13.7087 N.ar    1  UNL1       -0.1679
     29 C          62.2053   86.4045   10.6307 C.3     1  UNL1        0.1155
     30 C          61.1865   87.4823   10.4055 C.3     1  UNL1        0.0819
     31 C          60.8790   88.4344    9.2880 C.3     1  UNL1        0.1465
     32 O          59.7457   89.0063   10.0871 O.3     1  UNL1       -0.3535
     33 C          60.0533   88.0542   11.2046 C.3     1  UNL1        0.1465
@<TRIPOS>BOND
     1    23    24    1
     2    24    25   ar
     3    25    26   ar
     4    26    22    1
     5    22     1    1
     6     1     2   ar
     7     2     3    2
     8     2     4   ar
     9     4     5   ar
    10     5     6   ar
    11     6    13    1
    12    13    14    2
    13    13    15    2
    14    13    16    1
    15    16    18    1
    16    18    19    1
    17    18    20    1
    18    20    21    1
    19     6     7   ar
    20     7     8   ar
    21     8     9   ar
    22     9    10   ar
    23    10    29    1
    24    29    30    1
    25    30    31    1
    26    31    32    1
    27    32    33    1
    28    10    11   ar
    29    11    12    2
    30    26    27   ar
    31    27    28   ar
    32    28    24   ar
    33    11     1   ar
    34     9     4   ar
    35    33    30    1
    36    21    18    1
    37    16    17    1
