@<TRIPOS>MOLECULE
*****
 29 32 0 0 0
SMALL
GASTEIGER

@<TRIPOS>ATOM
      1 C          67.0717   92.7620   13.5945 C.3     1  UNL1        0.0061
      2 C          65.8843   92.1575   12.9055 C.3     1  UNL1        0.0373
      3 C          65.7802   91.4848   14.2421 C.3     1  UNL1        0.0075
      4 C          64.6680   90.5142   14.5086 C.3     1  UNL1        0.0219
      5 C          63.6600   90.2163   13.4385 C.3     1  UNL1        0.0950
      6 N          63.7641   90.8891   12.1018 N.am    1  UNL1       -0.2639
      7 C          62.7561   90.5913   11.0317 C.2     1  UNL1        0.3040
      8 O          62.8603   91.2640    9.6951 O.2     1  UNL1       -0.2526
      9 N          61.6439   89.6207   11.2982 N.am    1  UNL1       -0.2884
     10 C          64.8763   91.8597   11.8353 C.3     1  UNL1        0.0989
     11 H          61.5756   89.1791   12.1755 H       1  UNL1        0.1510
     12 C          66.4009   93.0402   11.8082 C.ar    1  UNL1       -0.0212
     13 C          67.1539   92.4426   10.6568 C.ar    1  UNL1       -0.0042
     14 C          67.6705   93.3253    9.5594 C.ar    1  UNL1       -0.0003
     15 C          67.4340   94.8055    9.6136 C.ar    1  UNL1       -0.0000
     16 C          66.6809   95.4031   10.7650 C.ar    1  UNL1       -0.0003
     17 C          66.1644   94.5204   11.8623 C.ar    1  UNL1       -0.0042
     18 C          60.6359   89.3228   10.2281 C.3     1  UNL1        0.0956
     19 C          60.1757   87.9131   10.0027 C.3     1  UNL1        0.0477
     20 C          61.1690   86.7890   10.0141 C.ar    1  UNL1       -0.0189
     21 C          61.8972   86.4188    8.7561 C.ar    1  UNL1       -0.0026
     22 C          62.8904   85.2948    8.7675 C.ar    1  UNL1        0.0203
     23 C          63.1553   84.5409   10.0370 C.ar    1  UNL1        0.0989
     24 N          64.1485   83.4169   10.0483 N.ar    1  UNL1       -0.2407
     25 C          64.4134   82.6631   11.3178 C.ar    1  UNL1        0.1195
     26 C          63.6852   83.0332   12.5758 C.ar    1  UNL1        0.1195
     27 N          62.6920   84.1572   12.5644 N.ar    1  UNL1       -0.2407
     28 C          62.4271   84.9111   11.2950 C.ar    1  UNL1        0.0986
     29 C          61.4339   86.0351   11.2835 C.ar    1  UNL1        0.0164
@<TRIPOS>BOND
     1     1     2    1
     2     2    12    1
     3    12    13   ar
     4    13    14   ar
     5    14    15   ar
     6    15    16   ar
     7    16    17   ar
     8     2     3    1
     9     3     4    1
    10     4     5    1
    11     5     6    1
    12     6     7   am
    13     7     8    2
    14     7     9   am
    15     9    18    1
    16    18    19    1
    17    19    20    1
    18    20    21   ar
    19    21    22   ar
    20    22    23   ar
    21    23    24   ar
    22    24    25   ar
    23    25    26   ar
    24    26    27   ar
    25    27    28   ar
    26    28    29   ar
    27     6    10    1
    28    10     2    1
    29    17    12   ar
    30    29    20   ar
    31    28    23   ar
    32     9    11    1
@<TRIPOS>MOLECULE
*****
 29 32 0 0 0
SMALL
GASTEIGER

@<TRIPOS>ATOM
      1 C          60.8268   87.0710    8.8272 C.3     1  UNL1        0.0061
      2 C          61.4645   87.7187   10.0204 C.3     1  UNL1        0.0373
      3 C          60.5641   88.8309    9.5705 C.3     1  UNL1        0.0075
      4 C          60.5373   90.1264   10.3261 C.3     1  UNL1        0.0219
      5 C          61.4108   90.3097   11.5316 C.3     1  UNL1        0.0950
      6 N          62.3112   89.1975   11.9816 N.am    1  UNL1       -0.2639
      7 C          63.1848   89.3809   13.1871 C.2     1  UNL1        0.3040
      8 O          64.0851   88.2687   13.6369 O.2     1  UNL1       -0.2526
      9 N          63.1579   90.6764   13.9427 N.am    1  UNL1       -0.2884
     10 C          62.3381   87.9020   11.2259 C.3     1  UNL1        0.0989
     11 H          62.5670   91.4063   13.6474 H       1  UNL1        0.1510
     12 C          62.1434   86.3816   10.0558 C.ar    1  UNL1       -0.0212
     13 C          62.2181   85.6123   11.3414 C.ar    1  UNL1       -0.0042
     14 C          62.8970   84.2752   11.3769 C.ar    1  UNL1       -0.0003
     15 C          63.5012   83.7074   10.1269 C.ar    1  UNL1       -0.0000
     16 C          63.4264   84.4767    8.8413 C.ar    1  UNL1       -0.0003
     17 C          62.7475   85.8138    8.8059 C.ar    1  UNL1       -0.0042
     18 C          64.0315   90.8597   15.1482 C.3     1  UNL1        0.0956
     19 C          65.0979   91.9145   15.1482 C.3     1  UNL1        0.0477
     20 C          66.0018   92.0673   13.9609 C.ar    1  UNL1       -0.0189
     21 C          67.3731   91.4597   13.9792 C.ar    1  UNL1       -0.0026
     22 C          68.2770   91.6124   12.7919 C.ar    1  UNL1        0.0203
     23 C          67.8095   92.3727   11.5862 C.ar    1  UNL1        0.0989
     24 N          68.7134   92.5253   10.3989 N.ar    1  UNL1       -0.2407
     25 C          68.2459   93.2856    9.1934 C.ar    1  UNL1        0.1195
     26 C          66.8746   93.8932    9.1751 C.ar    1  UNL1        0.1195
     27 N          65.9707   93.7405   10.3624 N.ar    1  UNL1       -0.2407
     28 C          66.4382   92.9802   11.5679 C.ar    1  UNL1        0.0986
     29 C          65.5343   92.8275   12.7553 C.ar    1  UNL1        0.0164
@<TRIPOS>BOND
     1     1     2    1
     2     2    12    1
     3    12    13   ar
     4    13    14   ar
     5    14    15   ar
     6    15    16   ar
     7    16    17   ar
     8     2     3    1
     9     3     4    1
    10     4     5    1
    11     5     6    1
    12     6     7   am
    13     7     8    2
    14     7     9   am
    15     9    18    1
    16    18    19    1
    17    19    20    1
    18    20    21   ar
    19    21    22   ar
    20    22    23   ar
    21    23    24   ar
    22    24    25   ar
    23    25    26   ar
    24    26    27   ar
    25    27    28   ar
    26    28    29   ar
    27     6    10    1
    28    10     2    1
    29    17    12   ar
    30    29    20   ar
    31    28    23   ar
    32     9    11    1
@<TRIPOS>MOLECULE
*****
 29 32 0 0 0
SMALL
GASTEIGER

@<TRIPOS>ATOM
      1 C          64.2560   82.4435   11.3231 C.3     1  UNL1        0.0061
      2 C          63.4326   83.6673   11.0506 C.3     1  UNL1        0.0373
      3 C          64.0061   83.4299    9.6851 C.3     1  UNL1        0.0075
      4 C          63.6563   84.3512    8.5542 C.3     1  UNL1        0.0219
      5 C          62.7331   85.5099    8.7889 C.3     1  UNL1        0.0950
      6 N          62.1597   85.7474   10.1545 N.am    1  UNL1       -0.2639
      7 C          61.2365   86.9061   10.3892 C.2     1  UNL1        0.3040
      8 O          60.6631   87.1435   11.7547 O.2     1  UNL1       -0.2526
      9 N          60.8867   87.8274    9.2583 N.am    1  UNL1       -0.2884
     10 C          62.5094   84.8261   11.2854 C.3     1  UNL1        0.0989
     11 H          61.2631   87.6715    8.3620 H       1  UNL1        0.1510
     12 C          63.1452   83.4797   12.5109 C.ar    1  UNL1       -0.0212
     13 C          62.4161   82.2558   12.9805 C.ar    1  UNL1       -0.0042
     14 C          62.1286   82.0682   14.4407 C.ar    1  UNL1       -0.0003
     15 C          62.5702   83.1044   15.4312 C.ar    1  UNL1       -0.0000
     16 C          63.2992   84.3283   14.9616 C.ar    1  UNL1       -0.0003
     17 C          63.5867   84.5160   13.5014 C.ar    1  UNL1       -0.0042
     18 C          59.9636   88.9861    9.4929 C.3     1  UNL1        0.0956
     19 C          60.5227   90.3667    9.6693 C.3     1  UNL1        0.0477
     20 C          61.6837   90.5935   10.5917 C.ar    1  UNL1       -0.0189
     21 C          62.9201   91.2766   10.0871 C.ar    1  UNL1       -0.0026
     22 C          64.0811   91.5034   11.0094 C.ar    1  UNL1        0.0203
     23 C          64.0057   91.0472   12.4364 C.ar    1  UNL1        0.0989
     24 N          65.1666   91.2740   13.3587 N.ar    1  UNL1       -0.2407
     25 C          65.0911   90.8177   14.7856 C.ar    1  UNL1        0.1195
     26 C          63.8547   90.1346   15.2902 C.ar    1  UNL1        0.1195
     27 N          62.6937   89.9078   14.3679 N.ar    1  UNL1       -0.2407
     28 C          62.7692   90.3641   12.9410 C.ar    1  UNL1        0.0986
     29 C          61.6082   90.1373   12.0186 C.ar    1  UNL1        0.0164
@<TRIPOS>BOND
     1     1     2    1
     2     2    12    1
     3    12    13   ar
     4    13    14   ar
     5    14    15   ar
     6    15    16   ar
     7    16    17   ar
     8     2     3    1
     9     3     4    1
    10     4     5    1
    11     5     6    1
    12     6     7   am
    13     7     8    2
    14     7     9   am
    15     9    18    1
    16    18    19    1
    17    19    20    1
    18    20    21   ar
    19    21    22   ar
    20    22    23   ar
    21    23    24   ar
    22    24    25   ar
    23    25    26   ar
    24    26    27   ar
    25    27    28   ar
    26    28    29   ar
    27     6    10    1
    28    10     2    1
    29    17    12   ar
    30    29    20   ar
    31    28    23   ar
    32     9    11    1
@<TRIPOS>MOLECULE
*****
 29 32 0 0 0
SMALL
GASTEIGER

@<TRIPOS>ATOM
      1 C          60.7100   86.5205    8.9565 C.3     1  UNL1        0.0061
      2 C          61.4235   87.4179    9.9237 C.3     1  UNL1        0.0373
      3 C          60.5347   88.4189    9.2469 C.3     1  UNL1        0.0075
      4 C          60.5821   89.8613    9.6558 C.3     1  UNL1        0.0219
      5 C          61.5182   90.3027   10.7415 C.3     1  UNL1        0.0950
      6 N          62.4071   89.3017   11.4184 N.am    1  UNL1       -0.2639
      7 C          63.3432   89.7432   12.5040 C.2     1  UNL1        0.3040
      8 O          64.2319   88.7422   13.1808 O.2     1  UNL1       -0.2526
      9 N          63.3905   91.1856   12.9129 N.am    1  UNL1       -0.2884
     10 C          62.3597   87.8593   11.0095 C.3     1  UNL1        0.0989
     11 H          62.8072   91.8426   12.4687 H       1  UNL1        0.1510
     12 C          62.0645   86.1052   10.2646 C.ar    1  UNL1       -0.0212
     13 C          62.8069   85.3373    9.2115 C.ar    1  UNL1       -0.0042
     14 C          63.4479   84.0246    9.5524 C.ar    1  UNL1       -0.0003
     15 C          63.3464   83.4800   10.9463 C.ar    1  UNL1       -0.0000
     16 C          62.6040   84.2480   11.9994 C.ar    1  UNL1       -0.0003
     17 C          61.9630   85.5606   11.6585 C.ar    1  UNL1       -0.0042
     18 C          64.3267   91.6271   13.9986 C.3     1  UNL1        0.0956
     19 C          65.7959   91.7448   13.7201 C.3     1  UNL1        0.0477
     20 C          66.2704   92.4347   12.4755 C.ar    1  UNL1       -0.0189
     21 C          67.3147   91.7905   11.6127 C.ar    1  UNL1       -0.0026
     22 C          67.7893   92.4804   10.3682 C.ar    1  UNL1        0.0203
     23 C          67.2195   93.8144    9.9864 C.ar    1  UNL1        0.0989
     24 N          67.6940   94.5043    8.7419 N.ar    1  UNL1       -0.2407
     25 C          67.1242   95.8382    8.3601 C.ar    1  UNL1        0.1195
     26 C          66.0799   96.4824    9.2229 C.ar    1  UNL1        0.1195
     27 N          65.6054   95.7926   10.4675 N.ar    1  UNL1       -0.2407
     28 C          66.1752   94.4586   10.8492 C.ar    1  UNL1        0.0986
     29 C          65.7006   93.7687   12.0938 C.ar    1  UNL1        0.0164
@<TRIPOS>BOND
     1     1     2    1
     2     2    12    1
     3    12    13   ar
     4    13    14   ar
     5    14    15   ar
     6    15    16   ar
     7    16    17   ar
     8     2     3    1
     9     3     4    1
    10     4     5    1
    11     5     6    1
    12     6     7   am
    13     7     8    2
    14     7     9   am
    15     9    18    1
    16    18    19    1
    17    19    20    1
    18    20    21   ar
    19    21    22   ar
    20    22    23   ar
    21    23    24   ar
    22    24    25   ar
    23    25    26   ar
    24    26    27   ar
    25    27    28   ar
    26    28    29   ar
    27     6    10    1
    28    10     2    1
    29    17    12   ar
    30    29    20   ar
    31    28    23   ar
    32     9    11    1
@<TRIPOS>MOLECULE
*****
 29 32 0 0 0
SMALL
GASTEIGER

@<TRIPOS>ATOM
      1 C          62.3886   84.4222   11.8589 C.3     1  UNL1        0.0061
      2 C          62.8440   85.7983   12.2449 C.3     1  UNL1        0.0373
      3 C          63.4071   85.0075   13.3883 C.3     1  UNL1        0.0075
      4 C          64.1750   85.7014   14.4740 C.3     1  UNL1        0.0219
      5 C          64.3798   87.1862   14.4162 C.3     1  UNL1        0.0950
      6 N          63.8167   87.9771   13.2728 N.am    1  UNL1       -0.2639
      7 C          64.0216   89.4619   13.2151 C.2     1  UNL1        0.3040
      8 O          63.4585   90.2528   12.0716 O.2     1  UNL1       -0.2526
      9 N          64.7895   90.1559   14.3007 N.am    1  UNL1       -0.2884
     10 C          63.0488   87.2832   12.1871 C.3     1  UNL1        0.0989
     11 H          65.1591   89.6368   15.0512 H       1  UNL1        0.1510
     12 C          62.1227   86.1113   10.9674 C.ar    1  UNL1       -0.0212
     13 C          62.5844   85.5019    9.6768 C.ar    1  UNL1       -0.0042
     14 C          61.8632   85.8149    8.3993 C.ar    1  UNL1       -0.0003
     15 C          60.6803   86.7371    8.4124 C.ar    1  UNL1       -0.0000
     16 C          60.2186   87.3464    9.7030 C.ar    1  UNL1       -0.0003
     17 C          60.9398   87.0335   10.9805 C.ar    1  UNL1       -0.0042
     18 C          64.9943   91.6407   14.2430 C.3     1  UNL1        0.0956
     19 C          66.3479   92.1989   13.9171 C.3     1  UNL1        0.0477
     20 C          66.6030   92.8098   12.5710 C.ar    1  UNL1       -0.0189
     21 C          67.3012   92.0157   11.5072 C.ar    1  UNL1       -0.0026
     22 C          67.5563   92.6265   10.1612 C.ar    1  UNL1        0.0203
     23 C          67.1131   94.0315    9.8789 C.ar    1  UNL1        0.0989
     24 N          67.3682   94.6423    8.5329 N.ar    1  UNL1       -0.2407
     25 C          66.9251   96.0473    8.2508 C.ar    1  UNL1        0.1195
     26 C          66.2268   96.8414    9.3146 C.ar    1  UNL1        0.1195
     27 N          65.9717   96.2306   10.6606 N.ar    1  UNL1       -0.2407
     28 C          66.4149   94.8257   10.9428 C.ar    1  UNL1        0.0986
     29 C          66.1598   94.2148   12.2889 C.ar    1  UNL1        0.0164
@<TRIPOS>BOND
     1     1     2    1
     2     2    12    1
     3    12    13   ar
     4    13    14   ar
     5    14    15   ar
     6    15    16   ar
     7    16    17   ar
     8     2     3    1
     9     3     4    1
    10     4     5    1
    11     5     6    1
    12     6     7   am
    13     7     8    2
    14     7     9   am
    15     9    18    1
    16    18    19    1
    17    19    20    1
    18    20    21   ar
    19    21    22   ar
    20    22    23   ar
    21    23    24   ar
    22    24    25   ar
    23    25    26   ar
    24    26    27   ar
    25    27    28   ar
    26    28    29   ar
    27     6    10    1
    28    10     2    1
    29    17    12   ar
    30    29    20   ar
    31    28    23   ar
    32     9    11    1
@<TRIPOS>MOLECULE
*****
 29 32 0 0 0
SMALL
GASTEIGER

@<TRIPOS>ATOM
      1 C          64.5181   82.9990   14.5864 C.3     1  UNL1        0.0061
      2 C          64.0479   84.2037   13.8264 C.3     1  UNL1        0.0373
      3 C          64.5375   84.8626   15.0817 C.3     1  UNL1        0.0075
      4 C          64.4436   86.3520   15.2327 C.3     1  UNL1        0.0219
      5 C          63.8601   87.1825   14.1283 C.3     1  UNL1        0.0950
      6 N          63.3704   86.5236   12.8729 N.am    1  UNL1       -0.2639
      7 C          62.7869   87.3541   11.7685 C.2     1  UNL1        0.3040
      8 O          62.2973   86.6951   10.5131 O.2     1  UNL1       -0.2526
      9 N          62.6929   88.8435   11.9194 N.am    1  UNL1       -0.2884
     10 C          63.4643   85.0342   12.7219 C.3     1  UNL1        0.0989
     11 H          63.0143   89.2760   12.7434 H       1  UNL1        0.1510
     12 C          63.7216   83.1263   12.8349 C.ar    1  UNL1       -0.0212
     13 C          62.9263   81.9288   13.2632 C.ar    1  UNL1       -0.0042
     14 C          62.6000   80.8515   12.2718 C.ar    1  UNL1       -0.0003
     15 C          63.0689   80.9717   10.8521 C.ar    1  UNL1       -0.0000
     16 C          63.8642   82.1692   10.4238 C.ar    1  UNL1       -0.0003
     17 C          64.1905   83.2466   11.4152 C.ar    1  UNL1       -0.0042
     18 C          62.1094   89.6740   10.8151 C.3     1  UNL1        0.0956
     19 C          62.8749   90.8438   10.2716 C.3     1  UNL1        0.0477
     20 C          63.9412   91.4938   11.1028 C.ar    1  UNL1       -0.0189
     21 C          65.0055   92.3207   10.4443 C.ar    1  UNL1       -0.0026
     22 C          66.0717   92.9707   11.2754 C.ar    1  UNL1        0.0203
     23 C          66.0736   92.7938   12.7650 C.ar    1  UNL1        0.0989
     24 N          67.1398   93.4438   13.5960 N.ar    1  UNL1       -0.2407
     25 C          67.1417   93.2670   15.0855 C.ar    1  UNL1        0.1195
     26 C          66.0773   92.4401   15.7440 C.ar    1  UNL1        0.1195
     27 N          65.0111   91.7902   14.9129 N.ar    1  UNL1       -0.2407
     28 C          65.0093   91.9670   13.4234 C.ar    1  UNL1        0.0986
     29 C          63.9430   91.3170   12.5923 C.ar    1  UNL1        0.0164
@<TRIPOS>BOND
     1     1     2    1
     2     2    12    1
     3    12    13   ar
     4    13    14   ar
     5    14    15   ar
     6    15    16   ar
     7    16    17   ar
     8     2     3    1
     9     3     4    1
    10     4     5    1
    11     5     6    1
    12     6     7   am
    13     7     8    2
    14     7     9   am
    15     9    18    1
    16    18    19    1
    17    19    20    1
    18    20    21   ar
    19    21    22   ar
    20    22    23   ar
    21    23    24   ar
    22    24    25   ar
    23    25    26   ar
    24    26    27   ar
    25    27    28   ar
    26    28    29   ar
    27     6    10    1
    28    10     2    1
    29    17    12   ar
    30    29    20   ar
    31    28    23   ar
    32     9    11    1
@<TRIPOS>MOLECULE
*****
 29 32 0 0 0
SMALL
GASTEIGER

@<TRIPOS>ATOM
      1 C          60.7542   86.4943    8.7780 C.3     1  UNL1        0.0061
      2 C          61.3176   87.1721    9.9917 C.3     1  UNL1        0.0373
      3 C          60.2995   88.1911    9.5735 C.3     1  UNL1        0.0075
      4 C          60.1305   89.4522   10.3678 C.3     1  UNL1        0.0219
      5 C          60.9796   89.6943   11.5804 C.3     1  UNL1        0.0950
      6 N          61.9978   88.6753   11.9987 N.am    1  UNL1       -0.2639
      7 C          62.8469   88.9173   13.2112 C.2     1  UNL1        0.3040
      8 O          63.8650   87.8983   13.6294 O.2     1  UNL1       -0.2526
      9 N          62.6779   90.1785   14.0056 N.am    1  UNL1       -0.2884
     10 C          62.1668   87.4141   11.2043 C.3     1  UNL1        0.0989
     11 H          62.0097   90.8473   13.7311 H       1  UNL1        0.1510
     12 C          62.1401   85.9176    9.9884 C.ar    1  UNL1       -0.0212
     13 C          62.2719   85.1039   11.2416 C.ar    1  UNL1       -0.0042
     14 C          63.0943   83.8495   11.2383 C.ar    1  UNL1       -0.0003
     15 C          63.7850   83.4088    9.9819 C.ar    1  UNL1       -0.0000
     16 C          63.6532   84.2224    8.7287 C.ar    1  UNL1       -0.0003
     17 C          62.8308   85.4769    8.7320 C.ar    1  UNL1       -0.0042
     18 C          63.5270   90.4206   15.2181 C.3     1  UNL1        0.0956
     19 C          64.9973   90.6753   15.0655 C.3     1  UNL1        0.0477
     20 C          65.4769   91.8124   14.2127 C.ar    1  UNL1       -0.0189
     21 C          66.1968   92.9689   14.8405 C.ar    1  UNL1       -0.0026
     22 C          66.6764   94.1060   13.9878 C.ar    1  UNL1        0.0203
     23 C          66.4361   94.0865   12.5072 C.ar    1  UNL1        0.0989
     24 N          66.9157   95.2235   11.6545 N.ar    1  UNL1       -0.2407
     25 C          66.6753   95.2040   10.1741 C.ar    1  UNL1        0.1195
     26 C          65.9554   94.0474    9.5463 C.ar    1  UNL1        0.1195
     27 N          65.4758   92.9104   10.3990 N.ar    1  UNL1       -0.2407
     28 C          65.7161   92.9299   11.8794 C.ar    1  UNL1        0.0986
     29 C          65.2366   91.7928   12.7322 C.ar    1  UNL1        0.0164
@<TRIPOS>BOND
     1     1     2    1
     2     2    12    1
     3    12    13   ar
     4    13    14   ar
     5    14    15   ar
     6    15    16   ar
     7    16    17   ar
     8     2     3    1
     9     3     4    1
    10     4     5    1
    11     5     6    1
    12     6     7   am
    13     7     8    2
    14     7     9   am
    15     9    18    1
    16    18    19    1
    17    19    20    1
    18    20    21   ar
    19    21    22   ar
    20    22    23   ar
    21    23    24   ar
    22    24    25   ar
    23    25    26   ar
    24    26    27   ar
    25    27    28   ar
    26    28    29   ar
    27     6    10    1
    28    10     2    1
    29    17    12   ar
    30    29    20   ar
    31    28    23   ar
    32     9    11    1
@<TRIPOS>MOLECULE
*****
 29 32 0 0 0
SMALL
GASTEIGER

@<TRIPOS>ATOM
      1 C          62.8962   83.0642   11.9628 C.3     1  UNL1        0.0061
      2 C          62.8060   84.5458   11.7467 C.3     1  UNL1        0.0373
      3 C          62.6011   84.0647   10.3408 C.3     1  UNL1        0.0075
      4 C          62.3880   85.0536    9.2333 C.3     1  UNL1        0.0219
      5 C          62.3799   86.5236    9.5316 C.3     1  UNL1        0.0950
      6 N          62.5849   87.0048   10.9375 N.am    1  UNL1       -0.2639
      7 C          62.5767   88.4747   11.2358 C.2     1  UNL1        0.3040
      8 O          62.7817   88.9558   12.6417 O.2     1  UNL1       -0.2526
      9 N          62.3637   89.4636   10.1283 N.am    1  UNL1       -0.2884
     10 C          62.7979   86.0159   12.0451 C.3     1  UNL1        0.0989
     11 H          62.2292   89.1479    9.2056 H       1  UNL1        0.1510
     12 C          63.0423   84.5123   13.2276 C.ar    1  UNL1       -0.0212
     13 C          63.9479   85.5237   13.8657 C.ar    1  UNL1       -0.0042
     14 C          64.1842   85.4902   15.3466 C.ar    1  UNL1       -0.0003
     15 C          63.5149   84.4455   16.1894 C.ar    1  UNL1       -0.0000
     16 C          62.6093   83.4341   15.5514 C.ar    1  UNL1       -0.0003
     17 C          62.3730   83.4676   14.0705 C.ar    1  UNL1       -0.0042
     18 C          62.3555   90.9336   10.4266 C.3     1  UNL1        0.0956
     19 C          63.5223   91.7868   10.0255 C.3     1  UNL1        0.0477
     20 C          64.6251   92.0579   11.0055 C.ar    1  UNL1       -0.0189
     21 C          65.9814   92.4682   10.5136 C.ar    1  UNL1       -0.0026
     22 C          67.0843   92.7394   11.4936 C.ar    1  UNL1        0.0203
     23 C          66.8308   92.6001   12.9655 C.ar    1  UNL1        0.0989
     24 N          67.9336   92.8712   13.9454 N.ar    1  UNL1       -0.2407
     25 C          67.6800   92.7320   15.4172 C.ar    1  UNL1        0.1195
     26 C          66.3237   92.3217   15.9091 C.ar    1  UNL1        0.1195
     27 N          65.2209   92.0506   14.9292 N.ar    1  UNL1       -0.2407
     28 C          65.4744   92.1898   13.4574 C.ar    1  UNL1        0.0986
     29 C          64.3716   91.9187   12.4774 C.ar    1  UNL1        0.0164
@<TRIPOS>BOND
     1     1     2    1
     2     2    12    1
     3    12    13   ar
     4    13    14   ar
     5    14    15   ar
     6    15    16   ar
     7    16    17   ar
     8     2     3    1
     9     3     4    1
    10     4     5    1
    11     5     6    1
    12     6     7   am
    13     7     8    2
    14     7     9   am
    15     9    18    1
    16    18    19    1
    17    19    20    1
    18    20    21   ar
    19    21    22   ar
    20    22    23   ar
    21    23    24   ar
    22    24    25   ar
    23    25    26   ar
    24    26    27   ar
    25    27    28   ar
    26    28    29   ar
    27     6    10    1
    28    10     2    1
    29    17    12   ar
    30    29    20   ar
    31    28    23   ar
    32     9    11    1
@<TRIPOS>MOLECULE
*****
 29 32 0 0 0
SMALL
GASTEIGER

@<TRIPOS>ATOM
      1 C          61.7840   85.2632   10.2941 C.3     1  UNL1        0.0061
      2 C          62.3982   86.2709   11.2199 C.3     1  UNL1        0.0373
      3 C          61.8134   87.1884   10.1874 C.3     1  UNL1        0.0075
      4 C          61.9718   88.6734   10.3277 C.3     1  UNL1        0.0219
      5 C          62.7151   89.2409   11.5004 C.3     1  UNL1        0.0950
      6 N          63.3001   88.3234   12.5330 N.am    1  UNL1       -0.2639
      7 C          64.0434   88.8909   13.7058 C.2     1  UNL1        0.3040
      8 O          64.6282   87.9734   14.7382 O.2     1  UNL1       -0.2526
      9 N          64.2018   90.3759   13.8460 N.am    1  UNL1       -0.2884
     10 C          63.1416   86.8384   12.3928 C.3     1  UNL1        0.0989
     11 H          63.8179   90.9780   13.1683 H       1  UNL1        0.1510
     12 C          62.7698   85.0034   11.9309 C.ar    1  UNL1       -0.0212
     13 C          63.0969   83.7697   11.1429 C.ar    1  UNL1       -0.0042
     14 C          63.4685   82.5022   11.8539 C.ar    1  UNL1       -0.0003
     15 C          63.5128   82.4684   13.3528 C.ar    1  UNL1       -0.0000
     16 C          63.1857   83.7021   14.1408 C.ar    1  UNL1       -0.0003
     17 C          62.8142   84.9696   13.4298 C.ar    1  UNL1       -0.0042
     18 C          64.9451   90.9434   15.0188 C.3     1  UNL1        0.0956
     19 C          66.2798   91.5971   14.8157 C.3     1  UNL1        0.0477
     20 C          66.5399   92.4024   13.5772 C.ar    1  UNL1       -0.0189
     21 C          66.1168   93.8402   13.5149 C.ar    1  UNL1       -0.0026
     22 C          66.3768   94.6455   12.2764 C.ar    1  UNL1        0.0203
     23 C          67.0599   94.0130   11.1002 C.ar    1  UNL1        0.0989
     24 N          67.3199   94.8183    9.8617 N.ar    1  UNL1       -0.2407
     25 C          68.0030   94.1859    8.6856 C.ar    1  UNL1        0.1195
     26 C          68.4260   92.7481    8.7479 C.ar    1  UNL1        0.1195
     27 N          68.1660   91.9428    9.9863 N.ar    1  UNL1       -0.2407
     28 C          67.4829   92.5753   11.1625 C.ar    1  UNL1        0.0986
     29 C          67.2229   91.7700   12.4010 C.ar    1  UNL1        0.0164
@<TRIPOS>BOND
     1     1     2    1
     2     2    12    1
     3    12    13   ar
     4    13    14   ar
     5    14    15   ar
     6    15    16   ar
     7    16    17   ar
     8     2     3    1
     9     3     4    1
    10     4     5    1
    11     5     6    1
    12     6     7   am
    13     7     8    2
    14     7     9   am
    15     9    18    1
    16    18    19    1
    17    19    20    1
    18    20    21   ar
    19    21    22   ar
    20    22    23   ar
    21    23    24   ar
    22    24    25   ar
    23    25    26   ar
    24    26    27   ar
    25    27    28   ar
    26    28    29   ar
    27     6    10    1
    28    10     2    1
    29    17    12   ar
    30    29    20   ar
    31    28    23   ar
    32     9    11    1
