@<TRIPOS>MOLECULE
*****
 39 43 0 0 0
SMALL
GASTEIGER

@<TRIPOS>ATOM
      1 N          63.0749   89.8741   15.5278 N.ar    1  UNL1       -0.1994
      2 N          64.3604   90.6177   15.3171 N.ar    1  UNL1       -0.1460
      3 C          64.4070   91.0671   13.8867 C.ar    1  UNL1        0.1860
      4 C          65.4314   91.8403   13.1104 C.ar    1  UNL1        0.0423
      5 C          65.1990   92.1477   11.6607 C.ar    1  UNL1        0.0628
      6 C          63.9422   91.6818   10.9874 C.ar    1  UNL1        0.2757
      7 O          63.7097   91.9892    9.5378 O.2     1  UNL1       -0.2655
      8 N          62.9177   90.9086   11.7638 N.ar    1  UNL1       -0.2229
      9 N          63.1501   90.6012   13.2134 N.ar    1  UNL1       -0.1765
     10 C          62.3269   89.8639   14.2276 C.ar    1  UNL1        0.3669
     11 O          60.9903   89.2280   13.9843 O.2     1  UNL1       -0.2429
     12 C          66.6882   92.3062   13.7838 C.ar    1  UNL1        0.0032
     13 C          66.6339   93.4239   14.7826 C.ar    1  UNL1        0.0010
     14 C          67.8907   93.8898   15.4559 C.ar    1  UNL1        0.0114
     15 C          69.2018   93.2379   15.1305 C.ar    1  UNL1        0.0577
     16 CL         70.4586   93.7038   15.8038 Cl      1  UNL1       -0.0822
     17 C          69.2562   92.1201   14.1316 C.ar    1  UNL1        0.0114
     18 C          67.9993   91.6543   13.4582 C.ar    1  UNL1        0.0010
     19 C          66.2234   92.9209   10.8844 C.ar    1  UNL1        0.0353
     20 C          67.2696   92.1945   10.0922 C.ar    1  UNL1        0.0231
     21 C          68.2940   92.9677    9.3159 C.ar    1  UNL1        0.0990
     22 N          68.2722   94.4675    9.3318 N.ar    1  UNL1       -0.2400
     23 C          67.2260   95.1940   10.1241 C.ar    1  UNL1        0.1284
     24 C          66.2016   94.4207   10.9004 C.ar    1  UNL1        0.1593
     25 F          65.1554   95.1472   11.6927 F       1  UNL1       -0.2025
     26 C          63.0050   87.8387   17.1409 C.3     1  UNL1        0.0286
     27 C          62.6176   89.2502   16.8129 C.3     1  UNL1        0.1324
     28 C          61.6609   90.4427   11.0904 C.3     1  UNL1        0.1568
     29 C          61.6733   89.1926   10.2614 C.ar    1  UNL1        0.0158
     30 C          62.6665   88.1076   10.5552 C.ar    1  UNL1        0.0003
     31 C          62.6789   86.8577    9.7261 C.ar    1  UNL1        0.0228
     32 C          61.6981   86.6927    8.6032 C.ar    1  UNL1        0.1522
     33 N          60.7050   87.7777    8.3094 N.ar    1  UNL1       -0.2460
     34 C          60.6926   89.0277    9.1385 C.ar    1  UNL1        0.0572
     35 C          59.6994   90.1127    8.8447 C.3     1  UNL1        0.0518
     36 C          61.7105   85.4426    7.7742 C.3     1  UNL1        0.4348
     37 F          61.7229   84.1927    6.9451 F       1  UNL1       -0.1644
     38 F          63.1767   85.2779    8.0444 F       1  UNL1       -0.1644
     39 F          60.2443   85.6074    7.5039 F       1  UNL1       -0.1644
@<TRIPOS>BOND
     1    26    27    1
     2    27     1    1
     3     1     2   ar
     4     2     3   ar
     5     3     4   ar
     6     4    12    1
     7    12    13   ar
     8    13    14   ar
     9    14    15   ar
    10    15    16    1
    11    15    17   ar
    12    17    18   ar
    13     4     5   ar
    14     5    19    1
    15    19    20   ar
    16    20    21   ar
    17    21    22   ar
    18    22    23   ar
    19    23    24   ar
    20    24    25    1
    21     5     6   ar
    22     6     7    2
    23     6     8   ar
    24     8    28    1
    25    28    29    1
    26    29    30   ar
    27    30    31   ar
    28    31    32   ar
    29    32    36    1
    30    36    37    1
    31    36    38    1
    32    36    39    1
    33    32    33   ar
    34    33    34   ar
    35    34    35    1
    36     8     9   ar
    37     9    10   ar
    38    10    11    2
    39    10     1   ar
    40     9     3   ar
    41    18    12   ar
    42    24    19   ar
    43    34    29   ar
@<TRIPOS>MOLECULE
*****
 39 43 0 0 0
SMALL
GASTEIGER

@<TRIPOS>ATOM
      1 N          63.7531   86.3614   15.4792 N.ar    1  UNL1       -0.1994
      2 N          63.5785   85.3340   14.4003 N.ar    1  UNL1       -0.1460
      3 C          63.1737   86.0458   13.1435 C.ar    1  UNL1        0.1860
      4 C          62.8641   85.5474   11.7630 C.ar    1  UNL1        0.0423
      5 C          62.4789   86.5164   10.6846 C.ar    1  UNL1        0.0628
      6 C          62.4033   87.9837   10.9868 C.ar    1  UNL1        0.2757
      7 O          62.0182   88.9526    9.9085 O.2     1  UNL1       -0.2655
      8 N          62.7129   88.4820   12.3673 N.ar    1  UNL1       -0.2229
      9 N          63.0981   87.5131   13.4456 N.ar    1  UNL1       -0.1765
     10 C          63.4562   87.7081   14.8891 C.ar    1  UNL1        0.3669
     11 O          63.5082   89.0197   15.6152 O.2     1  UNL1       -0.2429
     12 C          62.9397   84.0801   11.4609 C.ar    1  UNL1        0.0032
     13 C          62.0715   83.1142   12.2112 C.ar    1  UNL1        0.0010
     14 C          62.1471   81.6469   11.9090 C.ar    1  UNL1        0.0114
     15 C          63.0909   81.1455   10.8565 C.ar    1  UNL1        0.0577
     16 CL         63.1665   79.6782   10.5544 Cl      1  UNL1       -0.0822
     17 C          63.9592   82.1115   10.1061 C.ar    1  UNL1        0.0114
     18 C          63.8836   83.5788   10.4083 C.ar    1  UNL1        0.0010
     19 C          62.1694   86.0180    9.3041 C.ar    1  UNL1        0.0353
     20 C          63.2568   85.4208    8.4610 C.ar    1  UNL1        0.0231
     21 C          62.9472   84.9224    7.0805 C.ar    1  UNL1        0.0990
     22 N          61.5502   85.0212    6.5431 N.ar    1  UNL1       -0.2400
     23 C          60.4628   85.6184    7.3863 C.ar    1  UNL1        0.1284
     24 C          60.7724   86.1168    8.7668 C.ar    1  UNL1        0.1593
     25 F          59.6850   86.7140    9.6100 F       1  UNL1       -0.2025
     26 C          63.1803   86.3339   18.0131 C.3     1  UNL1        0.0286
     27 C          64.1542   86.0897   16.8988 C.3     1  UNL1        0.1324
     28 C          62.6373   89.9494   12.6695 C.3     1  UNL1        0.1568
     29 C          63.6694   90.8841   12.1117 C.ar    1  UNL1        0.0158
     30 C          63.5892   91.3213   10.6791 C.ar    1  UNL1        0.0003
     31 C          64.6213   92.2560   10.1213 C.ar    1  UNL1        0.0228
     32 C          65.7335   92.7535   10.9962 C.ar    1  UNL1        0.1522
     33 N          65.8137   92.3163   12.4288 N.ar    1  UNL1       -0.2460
     34 C          64.7817   91.3816   12.9865 C.ar    1  UNL1        0.0572
     35 C          64.8618   90.9444   14.4192 C.3     1  UNL1        0.0518
     36 C          66.7656   93.6883   10.4384 C.3     1  UNL1        0.4348
     37 F          67.7977   94.6229    9.8806 F       1  UNL1       -0.1644
     38 F          65.9516   94.8614   10.8977 F       1  UNL1       -0.1644
     39 F          67.5797   92.5152    9.9790 F       1  UNL1       -0.1644
@<TRIPOS>BOND
     1    26    27    1
     2    27     1    1
     3     1     2   ar
     4     2     3   ar
     5     3     4   ar
     6     4    12    1
     7    12    13   ar
     8    13    14   ar
     9    14    15   ar
    10    15    16    1
    11    15    17   ar
    12    17    18   ar
    13     4     5   ar
    14     5    19    1
    15    19    20   ar
    16    20    21   ar
    17    21    22   ar
    18    22    23   ar
    19    23    24   ar
    20    24    25    1
    21     5     6   ar
    22     6     7    2
    23     6     8   ar
    24     8    28    1
    25    28    29    1
    26    29    30   ar
    27    30    31   ar
    28    31    32   ar
    29    32    36    1
    30    36    37    1
    31    36    38    1
    32    36    39    1
    33    32    33   ar
    34    33    34   ar
    35    34    35    1
    36     8     9   ar
    37     9    10   ar
    38    10    11    2
    39    10     1   ar
    40     9     3   ar
    41    18    12   ar
    42    24    19   ar
    43    34    29   ar
@<TRIPOS>MOLECULE
*****
 39 43 0 0 0
SMALL
GASTEIGER

@<TRIPOS>ATOM
      1 N          61.8762   90.4922   10.5135 N.ar    1  UNL1       -0.1994
      2 N          63.0695   91.3987   10.4470 N.ar    1  UNL1       -0.1460
      3 C          63.8775   91.1937   11.6941 C.ar    1  UNL1        0.1860
      4 C          65.1554   91.8143   12.1754 C.ar    1  UNL1        0.0423
      5 C          65.7395   91.4017   13.4940 C.ar    1  UNL1        0.0628
      6 C          65.0456   90.3686   14.3313 C.ar    1  UNL1        0.2757
      7 O          65.6296   89.9560   15.6498 O.2     1  UNL1       -0.2655
      8 N          63.7676   89.7479   13.8499 N.ar    1  UNL1       -0.2229
      9 N          63.1836   90.1605   12.5313 N.ar    1  UNL1       -0.1765
     10 C          61.9467   89.7270   11.8017 C.ar    1  UNL1        0.3669
     11 O          60.9546   88.7072   12.2769 O.2     1  UNL1       -0.2429
     12 C          65.8493   92.8475   11.3381 C.ar    1  UNL1        0.0032
     13 C          65.6722   94.3048   11.6460 C.ar    1  UNL1        0.0010
     14 C          66.3661   95.3380   10.8087 C.ar    1  UNL1        0.0114
     15 C          67.2371   94.9139    9.6636 C.ar    1  UNL1        0.0577
     16 CL         67.9310   95.9471    8.8263 Cl      1  UNL1       -0.0822
     17 C          67.4142   93.4565    9.3556 C.ar    1  UNL1        0.0114
     18 C          66.7203   92.4233   10.1929 C.ar    1  UNL1        0.0010
     19 C          67.0174   92.0224   13.9753 C.ar    1  UNL1        0.0353
     20 C          68.3106   91.7095   13.2826 C.ar    1  UNL1        0.0231
     21 C          69.5885   92.3301   13.7639 C.ar    1  UNL1        0.0990
     22 N          69.5733   93.2637   14.9380 N.ar    1  UNL1       -0.2400
     23 C          68.2801   93.5765   15.6307 C.ar    1  UNL1        0.1284
     24 C          67.0021   92.9558   15.1493 C.ar    1  UNL1        0.1593
     25 F          65.7090   93.2687   15.8420 F       1  UNL1       -0.2025
     26 C          60.4638   89.0299    8.8959 C.3     1  UNL1        0.0286
     27 C          60.8012   90.3721    9.4743 C.3     1  UNL1        0.1324
     28 C          63.0737   88.7147   14.6872 C.3     1  UNL1        0.1568
     29 C          63.3203   87.2566   14.4359 C.ar    1  UNL1        0.0158
     30 C          63.4938   86.7562   13.0325 C.ar    1  UNL1        0.0003
     31 C          63.7404   85.2982   12.7813 C.ar    1  UNL1        0.0228
     32 C          63.8135   84.3405   13.9334 C.ar    1  UNL1        0.1522
     33 N          63.6401   84.8408   15.3368 N.ar    1  UNL1       -0.2460
     34 C          63.3934   86.2989   15.5880 C.ar    1  UNL1        0.0572
     35 C          63.2200   86.7993   16.9915 C.3     1  UNL1        0.0518
     36 C          64.0602   82.8823   13.6821 C.3     1  UNL1        0.4348
     37 F          64.3068   81.4242   13.4309 F       1  UNL1       -0.1644
     38 F          64.6317   83.2111   12.3349 F       1  UNL1       -0.1644
     39 F          63.4886   82.5535   15.0294 F       1  UNL1       -0.1644
@<TRIPOS>BOND
     1    26    27    1
     2    27     1    1
     3     1     2   ar
     4     2     3   ar
     5     3     4   ar
     6     4    12    1
     7    12    13   ar
     8    13    14   ar
     9    14    15   ar
    10    15    16    1
    11    15    17   ar
    12    17    18   ar
    13     4     5   ar
    14     5    19    1
    15    19    20   ar
    16    20    21   ar
    17    21    22   ar
    18    22    23   ar
    19    23    24   ar
    20    24    25    1
    21     5     6   ar
    22     6     7    2
    23     6     8   ar
    24     8    28    1
    25    28    29    1
    26    29    30   ar
    27    30    31   ar
    28    31    32   ar
    29    32    36    1
    30    36    37    1
    31    36    38    1
    32    36    39    1
    33    32    33   ar
    34    33    34   ar
    35    34    35    1
    36     8     9   ar
    37     9    10   ar
    38    10    11    2
    39    10     1   ar
    40     9     3   ar
    41    18    12   ar
    42    24    19   ar
    43    34    29   ar
@<TRIPOS>MOLECULE
*****
 39 43 0 0 0
SMALL
GASTEIGER

@<TRIPOS>ATOM
      1 N          60.6419   87.3836    8.7668 N.ar    1  UNL1       -0.1994
      2 N          61.2105   86.0997    9.2945 N.ar    1  UNL1       -0.1460
      3 C          61.8830   86.3937   10.6027 C.ar    1  UNL1        0.1860
      4 C          62.6149   85.5162   11.5745 C.ar    1  UNL1        0.0423
      5 C          63.1939   86.1043   12.8271 C.ar    1  UNL1        0.0628
      6 C          63.0411   87.5699   13.1078 C.ar    1  UNL1        0.2757
      7 O          63.6201   88.1579   14.3604 O.2     1  UNL1       -0.2655
      8 N          62.3092   88.4473   12.1360 N.ar    1  UNL1       -0.2229
      9 N          61.7302   87.8592   10.8834 N.ar    1  UNL1       -0.1765
     10 C          60.9631   88.4710    9.7488 C.ar    1  UNL1        0.3669
     11 O          60.5839   89.9164    9.6190 O.2     1  UNL1       -0.2429
     12 C          62.7677   84.0507   11.2937 C.ar    1  UNL1        0.0032
     13 C          62.0355   83.0459   12.1328 C.ar    1  UNL1        0.0010
     14 C          62.1883   81.5804   11.8521 C.ar    1  UNL1        0.0114
     15 C          63.0735   81.1196   10.7322 C.ar    1  UNL1        0.0577
     16 CL         63.2263   79.6541   10.4515 Cl      1  UNL1       -0.0822
     17 C          63.8058   82.1244    9.8930 C.ar    1  UNL1        0.0114
     18 C          63.6530   83.5899   10.1738 C.ar    1  UNL1        0.0010
     19 C          63.9258   85.2269   13.7989 C.ar    1  UNL1        0.0353
     20 C          65.4196   85.1112   13.7271 C.ar    1  UNL1        0.0231
     21 C          66.1515   84.2337   14.6989 C.ar    1  UNL1        0.0990
     22 N          65.3895   83.4719   15.7425 N.ar    1  UNL1       -0.2400
     23 C          63.8957   83.5876   15.8143 C.ar    1  UNL1        0.1284
     24 C          63.1638   84.4651   14.8424 C.ar    1  UNL1        0.1593
     25 F          61.6700   84.5808   14.9142 F       1  UNL1       -0.2025
     26 C          59.3396   88.8954    7.1030 C.3     1  UNL1        0.0286
     27 C          59.8851   87.5507    7.4825 C.3     1  UNL1        0.1324
     28 C          62.1563   89.9129   12.4167 C.3     1  UNL1        0.1568
     29 C          63.2420   90.8695   12.0212 C.ar    1  UNL1        0.0158
     30 C          63.4308   91.2349   10.5788 C.ar    1  UNL1        0.0003
     31 C          64.5164   92.1915   10.1834 C.ar    1  UNL1        0.0228
     32 C          65.4132   92.7826   11.2304 C.ar    1  UNL1        0.1522
     33 N          65.2243   92.4172   12.6729 N.ar    1  UNL1       -0.2460
     34 C          64.1387   91.4607   13.0683 C.ar    1  UNL1        0.0572
     35 C          63.9499   91.0952   14.5108 C.3     1  UNL1        0.0518
     36 C          66.4988   93.7393   10.8349 C.3     1  UNL1        0.4348
     37 F          67.5844   94.6958   10.4395 F       1  UNL1       -0.1644
     38 F          65.7376   94.8654   11.4692 F       1  UNL1       -0.1644
     39 F          67.2600   92.6131   10.2007 F       1  UNL1       -0.1644
@<TRIPOS>BOND
     1    26    27    1
     2    27     1    1
     3     1     2   ar
     4     2     3   ar
     5     3     4   ar
     6     4    12    1
     7    12    13   ar
     8    13    14   ar
     9    14    15   ar
    10    15    16    1
    11    15    17   ar
    12    17    18   ar
    13     4     5   ar
    14     5    19    1
    15    19    20   ar
    16    20    21   ar
    17    21    22   ar
    18    22    23   ar
    19    23    24   ar
    20    24    25    1
    21     5     6   ar
    22     6     7    2
    23     6     8   ar
    24     8    28    1
    25    28    29    1
    26    29    30   ar
    27    30    31   ar
    28    31    32   ar
    29    32    36    1
    30    36    37    1
    31    36    38    1
    32    36    39    1
    33    32    33   ar
    34    33    34   ar
    35    34    35    1
    36     8     9   ar
    37     9    10   ar
    38    10    11    2
    39    10     1   ar
    40     9     3   ar
    41    18    12   ar
    42    24    19   ar
    43    34    29   ar
@<TRIPOS>MOLECULE
*****
 39 43 0 0 0
SMALL
GASTEIGER

@<TRIPOS>ATOM
      1 N          63.6431   86.2612   15.5774 N.ar    1  UNL1       -0.1994
      2 N          63.4781   85.2388   14.4922 N.ar    1  UNL1       -0.1460
      3 C          63.1350   85.9610   13.2231 C.ar    1  UNL1        0.1860
      4 C          62.8593   85.4710   11.8325 C.ar    1  UNL1        0.0423
      5 C          62.5365   86.4497   10.7426 C.ar    1  UNL1        0.0628
      6 C          62.4894   87.9185   11.0433 C.ar    1  UNL1        0.2757
      7 O          62.1666   88.8972    9.9535 O.2     1  UNL1       -0.2655
      8 N          62.7650   88.4085   12.4340 N.ar    1  UNL1       -0.2229
      9 N          63.0878   87.4298   13.5239 N.ar    1  UNL1       -0.1765
     10 C          63.4019   87.6153   14.9789 C.ar    1  UNL1        0.3669
     11 O          63.4638   88.9250   15.7074 O.2     1  UNL1       -0.2429
     12 C          62.9064   84.0022   11.5318 C.ar    1  UNL1        0.0032
     13 C          63.8143   83.4858   10.4551 C.ar    1  UNL1        0.0010
     14 C          63.8614   82.0170   10.1544 C.ar    1  UNL1        0.0114
     15 C          63.0007   81.0646   10.9303 C.ar    1  UNL1        0.0577
     16 CL         63.0479   79.5958   10.6295 Cl      1  UNL1       -0.0822
     17 C          62.0928   81.5810   12.0070 C.ar    1  UNL1        0.0114
     18 C          62.0457   83.0497   12.3077 C.ar    1  UNL1        0.0010
     19 C          62.2608   85.9597    9.3520 C.ar    1  UNL1        0.0353
     20 C          63.3641   85.3494    8.5393 C.ar    1  UNL1        0.0231
     21 C          63.0885   84.8594    7.1487 C.ar    1  UNL1        0.0990
     22 N          61.7095   84.9796    6.5707 N.ar    1  UNL1       -0.2400
     23 C          60.6062   85.5898    7.3833 C.ar    1  UNL1        0.1284
     24 C          60.8819   86.0799    8.7740 C.ar    1  UNL1        0.1593
     25 F          59.7786   86.6901    9.5867 F       1  UNL1       -0.2025
     26 C          63.0514   86.3971   18.1035 C.3     1  UNL1        0.0286
     27 C          63.9886   85.9791   17.0095 C.3     1  UNL1        0.1324
     28 C          62.7179   89.8773   12.7348 C.3     1  UNL1        0.1568
     29 C          63.9731   90.6059   13.1139 C.ar    1  UNL1        0.0158
     30 C          64.5680   90.4155   14.4776 C.ar    1  UNL1        0.0003
     31 C          65.8232   91.1440   14.8567 C.ar    1  UNL1        0.0228
     32 C          66.4834   92.0631   13.8720 C.ar    1  UNL1        0.1522
     33 N          65.8885   92.2535   12.5083 N.ar    1  UNL1       -0.2460
     34 C          64.6333   91.5249   12.1293 C.ar    1  UNL1        0.0572
     35 C          64.0383   91.7154   10.7655 C.3     1  UNL1        0.0518
     36 C          67.7386   92.7916   14.2512 C.3     1  UNL1        0.4348
     37 F          68.9937   93.5202   14.6303 F       1  UNL1       -0.1644
     38 F          68.5540   91.7698   13.5156 F       1  UNL1       -0.1644
     39 F          66.9233   93.8134   14.9867 F       1  UNL1       -0.1644
@<TRIPOS>BOND
     1    26    27    1
     2    27     1    1
     3     1     2   ar
     4     2     3   ar
     5     3     4   ar
     6     4    12    1
     7    12    13   ar
     8    13    14   ar
     9    14    15   ar
    10    15    16    1
    11    15    17   ar
    12    17    18   ar
    13     4     5   ar
    14     5    19    1
    15    19    20   ar
    16    20    21   ar
    17    21    22   ar
    18    22    23   ar
    19    23    24   ar
    20    24    25    1
    21     5     6   ar
    22     6     7    2
    23     6     8   ar
    24     8    28    1
    25    28    29    1
    26    29    30   ar
    27    30    31   ar
    28    31    32   ar
    29    32    36    1
    30    36    37    1
    31    36    38    1
    32    36    39    1
    33    32    33   ar
    34    33    34   ar
    35    34    35    1
    36     8     9   ar
    37     9    10   ar
    38    10    11    2
    39    10     1   ar
    40     9     3   ar
    41    18    12   ar
    42    24    19   ar
    43    34    29   ar
@<TRIPOS>MOLECULE
*****
 39 43 0 0 0
SMALL
GASTEIGER

@<TRIPOS>ATOM
      1 N          60.9615   88.0244    9.0664 N.ar    1  UNL1       -0.1994
      2 N          61.4642   86.6747    9.4858 N.ar    1  UNL1       -0.1460
      3 C          62.0994   86.8160   10.8373 C.ar    1  UNL1        0.1860
      4 C          62.7637   85.8218   11.7429 C.ar    1  UNL1        0.0423
      5 C          63.3181   86.2646   13.0646 C.ar    1  UNL1        0.0628
      6 C          63.2079   87.7015   13.4806 C.ar    1  UNL1        0.2757
      7 O          63.7622   88.1443   14.8022 O.2     1  UNL1       -0.2655
      8 N          62.5435   88.6957   12.5749 N.ar    1  UNL1       -0.2229
      9 N          61.9892   88.2529   11.2533 N.ar    1  UNL1       -0.1765
     10 C          61.2860   88.9997   10.1589 C.ar    1  UNL1        0.3669
     11 O          60.9639   90.4647   10.1572 O.2     1  UNL1       -0.2429
     12 C          62.8739   84.3849   11.3269 C.ar    1  UNL1        0.0032
     13 C          62.1697   83.3200   12.1144 C.ar    1  UNL1        0.0010
     14 C          62.2798   81.8831   11.6984 C.ar    1  UNL1        0.0114
     15 C          63.0941   81.5110   10.4949 C.ar    1  UNL1        0.0577
     16 CL         63.2042   80.0740   10.0789 Cl      1  UNL1       -0.0822
     17 C          63.7983   82.5759    9.7073 C.ar    1  UNL1        0.0114
     18 C          63.6882   84.0128   10.1233 C.ar    1  UNL1        0.0010
     19 C          63.9825   85.2704   13.9702 C.ar    1  UNL1        0.0353
     20 C          65.4705   85.0884   13.9209 C.ar    1  UNL1        0.0231
     21 C          66.1349   84.0942   14.8265 C.ar    1  UNL1        0.0990
     22 N          65.3112   83.2820   15.7815 N.ar    1  UNL1       -0.2400
     23 C          63.8231   83.4640   15.8308 C.ar    1  UNL1        0.1284
     24 C          63.1587   84.4583   14.9251 C.ar    1  UNL1        0.1593
     25 F          61.6707   84.6403   14.9744 F       1  UNL1       -0.2025
     26 C          59.0415   87.5628    7.3782 C.3     1  UNL1        0.0286
     27 C          60.2579   88.3427    7.7805 C.3     1  UNL1        0.1324
     28 C          62.4334   90.1327   12.9909 C.3     1  UNL1        0.1568
     29 C          63.6510   90.8735   13.4584 C.ar    1  UNL1        0.0158
     30 C          64.0031   90.8934   14.9163 C.ar    1  UNL1        0.0003
     31 C          65.2207   91.6343   15.3838 C.ar    1  UNL1        0.0228
     32 C          66.0862   92.3553   14.3933 C.ar    1  UNL1        0.1522
     33 N          65.7341   92.3354   12.9353 N.ar    1  UNL1       -0.2460
     34 C          64.5165   91.5945   12.4679 C.ar    1  UNL1        0.0572
     35 C          64.1644   91.5746   11.0099 C.3     1  UNL1        0.0518
     36 C          67.3039   93.0961   14.8608 C.3     1  UNL1        0.4348
     37 F          68.5215   93.8369   15.3282 F       1  UNL1       -0.1644
     38 F          66.7539   94.3657   14.2814 F       1  UNL1       -0.1644
     39 F          67.8539   91.8266   15.4401 F       1  UNL1       -0.1644
@<TRIPOS>BOND
     1    26    27    1
     2    27     1    1
     3     1     2   ar
     4     2     3   ar
     5     3     4   ar
     6     4    12    1
     7    12    13   ar
     8    13    14   ar
     9    14    15   ar
    10    15    16    1
    11    15    17   ar
    12    17    18   ar
    13     4     5   ar
    14     5    19    1
    15    19    20   ar
    16    20    21   ar
    17    21    22   ar
    18    22    23   ar
    19    23    24   ar
    20    24    25    1
    21     5     6   ar
    22     6     7    2
    23     6     8   ar
    24     8    28    1
    25    28    29    1
    26    29    30   ar
    27    30    31   ar
    28    31    32   ar
    29    32    36    1
    30    36    37    1
    31    36    38    1
    32    36    39    1
    33    32    33   ar
    34    33    34   ar
    35    34    35    1
    36     8     9   ar
    37     9    10   ar
    38    10    11    2
    39    10     1   ar
    40     9     3   ar
    41    18    12   ar
    42    24    19   ar
    43    34    29   ar
@<TRIPOS>MOLECULE
*****
 39 43 0 0 0
SMALL
GASTEIGER

@<TRIPOS>ATOM
      1 N          60.3982   93.3549    1.4557 N.ar    1  UNL1       -0.1994
      2 N          59.1781   93.7982    0.7041 N.ar    1  UNL1       -0.1460
      3 C          59.5453   93.9201   -0.7452 C.ar    1  UNL1        0.1860
      4 C          58.7491   94.3187   -1.9522 C.ar    1  UNL1        0.0423
      5 C          59.3998   94.3493   -3.3034 C.ar    1  UNL1        0.0628
      6 C          60.8468   93.9814   -3.4475 C.ar    1  UNL1        0.2757
      7 O          61.4976   94.0120   -4.7986 O.2     1  UNL1       -0.2655
      8 N          61.6431   93.5828   -2.2403 N.ar    1  UNL1       -0.2229
      9 N          60.9924   93.5522   -0.8892 N.ar    1  UNL1       -0.1765
     10 C          61.5194   93.2029    0.4710 C.ar    1  UNL1        0.3669
     11 O          62.9216   92.7764    0.7904 O.2     1  UNL1       -0.2429
     12 C          57.3020   94.6866   -1.8082 C.ar    1  UNL1        0.0032
     13 C          56.9176   96.0908   -1.4472 C.ar    1  UNL1        0.0010
     14 C          55.4705   96.4587   -1.3032 C.ar    1  UNL1        0.0114
     15 C          54.4080   95.4225   -1.5201 C.ar    1  UNL1        0.0577
     16 CL         52.9610   95.7904   -1.3760 Cl      1  UNL1       -0.0822
     17 C          54.7925   94.0182   -1.8811 C.ar    1  UNL1        0.0114
     18 C          56.2395   93.6502   -2.0251 C.ar    1  UNL1        0.0010
     19 C          58.6035   94.7479   -4.5105 C.ar    1  UNL1        0.0353
     20 C          58.5969   96.1769   -4.9663 C.ar    1  UNL1        0.0231
     21 C          57.8007   96.5755   -6.1734 C.ar    1  UNL1        0.0990
     22 N          57.0109   95.5449   -6.9247 N.ar    1  UNL1       -0.2400
     23 C          57.0175   94.1159   -6.4689 C.ar    1  UNL1        0.1284
     24 C          57.8138   93.7174   -5.2617 C.ar    1  UNL1        0.1593
     25 F          57.8204   92.2883   -4.8059 F       1  UNL1       -0.2025
     26 C          59.4135   92.3114    3.6217 C.3     1  UNL1        0.0286
     27 C          60.4822   93.1071    2.9327 C.3     1  UNL1        0.1324
     28 C          63.0901   93.2149   -2.3844 C.3     1  UNL1        0.1568
     29 C          63.9425   93.9090   -3.4051 C.ar    1  UNL1        0.0158
     30 C          64.4334   93.1587   -4.6076 C.ar    1  UNL1        0.0003
     31 C          65.2857   93.8528   -5.6282 C.ar    1  UNL1        0.0228
     32 C          65.6470   95.2972   -5.4464 C.ar    1  UNL1        0.1522
     33 N          65.1561   96.0476   -4.2440 N.ar    1  UNL1       -0.2460
     34 C          64.3038   95.3534   -3.2233 C.ar    1  UNL1        0.0572
     35 C          63.8128   96.1038   -2.0208 C.3     1  UNL1        0.0518
     36 C          66.4994   95.9913   -6.4672 C.3     1  UNL1        0.4348
     37 F          67.3517   96.6854   -7.4878 F       1  UNL1       -0.1644
     38 F          65.8114   95.2286   -7.5603 F       1  UNL1       -0.1644
     39 F          67.1873   96.7540   -5.3740 F       1  UNL1       -0.1644
@<TRIPOS>BOND
     1    26    27    1
     2    27     1    1
     3     1     2   ar
     4     2     3   ar
     5     3     4   ar
     6     4    12    1
     7    12    13   ar
     8    13    14   ar
     9    14    15   ar
    10    15    16    1
    11    15    17   ar
    12    17    18   ar
    13     4     5   ar
    14     5    19    1
    15    19    20   ar
    16    20    21   ar
    17    21    22   ar
    18    22    23   ar
    19    23    24   ar
    20    24    25    1
    21     5     6   ar
    22     6     7    2
    23     6     8   ar
    24     8    28    1
    25    28    29    1
    26    29    30   ar
    27    30    31   ar
    28    31    32   ar
    29    32    36    1
    30    36    37    1
    31    36    38    1
    32    36    39    1
    33    32    33   ar
    34    33    34   ar
    35    34    35    1
    36     8     9   ar
    37     9    10   ar
    38    10    11    2
    39    10     1   ar
    40     9     3   ar
    41    18    12   ar
    42    24    19   ar
    43    34    29   ar
