@<TRIPOS>MOLECULE
*****
 27 26 0 0 0
SMALL
GASTEIGER

@<TRIPOS>ATOM
      1 C          61.7920   85.9961   11.2047 C.2     1  UNL1       -0.0307
      2 C          62.5768   84.7426   11.4552 C.2     1  UNL1       -0.0307
      3 C          61.7095   86.5650    9.8192 C.3     1  UNL1        0.0258
      4 C          60.8426   87.7590    9.5491 C.3     1  UNL1        0.0064
      5 C          59.9673   88.3114   10.6349 C.3     1  UNL1        0.0216
      6 C          60.1511   89.7257   11.0996 C.3     1  UNL1        0.0898
      7 C          62.3512   90.0770   12.4360 C.2     1  UNL1        0.2995
      8 O          63.1464   89.8713   11.1810 O.2     1  UNL1       -0.2652
      9 N          60.8535   90.0042   12.3953 N.am    1  UNL1       -0.2971
     10 H          60.3315   90.1392   13.2191 H       1  UNL1        0.1499
     11 C          63.4397   89.8141   16.2434 C.3     1  UNL1        0.1111
     12 N          62.7374   89.5357   14.9476 N.am    1  UNL1       -0.2954
     13 C          63.0536   90.3555   13.7319 C.2     1  UNL1        0.2996
     14 O          64.0722   91.4536   13.8119 O.2     1  UNL1       -0.2652
     15 H          62.0688   88.8149   14.8950 H       1  UNL1        0.1499
     16 C          63.2792   84.0580   10.3204 C.3     1  UNL1        0.0257
     17 C          64.4378   83.1461   10.5962 C.3     1  UNL1        0.0047
     18 C          64.3077   82.0565   11.6189 C.3     1  UNL1        0.0003
     19 C          62.9829   81.3879   11.8380 C.3     1  UNL1        0.0001
     20 C          62.6530   80.7977   13.1769 C.3     1  UNL1        0.0026
     21 C          61.8088   81.5679   14.1486 C.3     1  UNL1        0.0321
     22 C          62.3321   82.8356   14.7563 C.3     1  UNL1        0.1427
     23 O          63.7979   82.9826   15.0385 O.3     1  UNL1       -0.3478
     24 C          64.5155   84.2391   14.6430 C.3     1  UNL1        0.1835
     25 C          63.9940   85.5728   15.0895 C.2     1  UNL1        0.0801
     26 O          63.9304   86.7159   14.1204 O.co2   1  UNL1       -0.5466
     27 O          63.5360   85.7634   16.5050 O.co2   1  UNL1       -0.5466
@<TRIPOS>UNITY_ATOM_ATTR
26 1
charge -1
@<TRIPOS>BOND
     1    11    12    1
     2    12    13   am
     3    13    14    2
     4    13     7    1
     5     7     8    2
     6     7     9   am
     7     9     6    1
     8     6     5    1
     9     5     4    1
    10     4     3    1
    11     3     1    1
    12     1     2    2
    13     2    16    1
    14    16    17    1
    15    17    18    1
    16    18    19    1
    17    19    20    1
    18    20    21    1
    19    21    22    1
    20    22    23    1
    21    23    24    1
    22    24    25    1
    23    25    26   ar
    24    25    27   ar
    25    12    15    1
    26     9    10    1
@<TRIPOS>MOLECULE
*****
 27 26 0 0 0
SMALL
GASTEIGER

@<TRIPOS>ATOM
      1 C          60.5481   86.9600   10.4679 C.2     1  UNL1       -0.0307
      2 C          61.7300   86.0416   10.3690 C.2     1  UNL1       -0.0307
      3 C          60.0037   87.6172    9.2344 C.3     1  UNL1        0.0258
      4 C          60.2375   89.0800    8.9986 C.3     1  UNL1        0.0064
      5 C          60.5175   89.9910   10.1570 C.3     1  UNL1        0.0216
      6 C          61.9237   90.4251   10.4469 C.3     1  UNL1        0.0898
      7 C          62.9442   89.8776   12.7726 C.2     1  UNL1        0.2995
      8 O          63.2018   88.4685   12.3279 O.2     1  UNL1       -0.2652
      9 N          62.3051   90.8560   11.8321 N.am    1  UNL1       -0.2971
     10 H          62.1361   91.7809   12.1240 H       1  UNL1        0.1499
     11 C          63.2521   89.9412   16.7288 C.3     1  UNL1        0.1111
     12 N          62.8707   89.5103   15.3436 N.am    1  UNL1       -0.2954
     13 C          63.3256   90.3086   14.1579 C.2     1  UNL1        0.2996
     14 O          64.1619   91.5377   14.3574 O.2     1  UNL1       -0.2652
     15 H          62.3218   88.7036   15.2126 H       1  UNL1        0.1499
     16 C          62.3675   85.7806    9.0366 C.3     1  UNL1        0.0257
     17 C          63.4867   84.7885    8.9222 C.3     1  UNL1        0.0047
     18 C          63.3944   83.4689    9.6294 C.3     1  UNL1        0.0003
     19 C          64.5206   83.0076   10.5064 C.3     1  UNL1        0.0001
     20 C          64.2374   82.5186   11.8958 C.3     1  UNL1        0.0026
     21 C          62.9960   82.9653   12.6096 C.3     1  UNL1        0.0321
     22 C          62.6018   82.3188   13.9045 C.3     1  UNL1        0.1427
     23 O          63.2549   82.7460   15.1855 O.3     1  UNL1       -0.3478
     24 C          64.0123   84.0392   15.2462 C.3     1  UNL1        0.1835
     25 C          63.3149   85.2978   15.6701 C.2     1  UNL1        0.0801
     26 O          63.8420   86.6317   15.2312 O.co2   1  UNL1       -0.5466
     27 O          62.0903   85.2223   16.5330 O.co2   1  UNL1       -0.5466
@<TRIPOS>UNITY_ATOM_ATTR
26 1
charge -1
@<TRIPOS>BOND
     1    11    12    1
     2    12    13   am
     3    13    14    2
     4    13     7    1
     5     7     8    2
     6     7     9   am
     7     9     6    1
     8     6     5    1
     9     5     4    1
    10     4     3    1
    11     3     1    1
    12     1     2    2
    13     2    16    1
    14    16    17    1
    15    17    18    1
    16    18    19    1
    17    19    20    1
    18    20    21    1
    19    21    22    1
    20    22    23    1
    21    23    24    1
    22    24    25    1
    23    25    26   ar
    24    25    27   ar
    25    12    15    1
    26     9    10    1
@<TRIPOS>MOLECULE
*****
 27 26 0 0 0
SMALL
GASTEIGER

@<TRIPOS>ATOM
      1 C          62.4926   82.8904   14.5545 C.2     1  UNL1       -0.0307
      2 C          62.0026   81.8392   13.6032 C.2     1  UNL1       -0.0307
      3 C          63.9587   83.1932   14.6474 C.3     1  UNL1        0.0258
      4 C          64.4929   84.4872   14.1088 C.3     1  UNL1        0.0064
      5 C          64.6903   85.6571   15.0267 C.3     1  UNL1        0.0216
      6 C          63.7830   86.8477   14.9300 C.3     1  UNL1        0.0898
      7 C          63.6520   89.4027   15.3821 C.2     1  UNL1        0.2995
      8 O          62.3600   89.2062   16.1183 O.2     1  UNL1       -0.2652
      9 N          64.3635   88.2234   14.7879 N.am    1  UNL1       -0.2971
     10 H          65.2115   88.3524   14.3047 H       1  UNL1        0.1499
     11 C          65.8695   92.4197   14.0665 C.3     1  UNL1        0.1111
     12 N          65.2889   91.0440   14.2087 N.am    1  UNL1       -0.2954
     13 C          64.2326   90.7786   15.2400 C.2     1  UNL1        0.2996
     14 O          63.7568   91.8889   16.1292 O.2     1  UNL1       -0.2652
     15 H          65.6012   90.3152   13.6250 H       1  UNL1        0.1499
     16 C          62.9787   81.0908   12.7447 C.3     1  UNL1        0.0257
     17 C          63.1616   81.4758   11.3066 C.3     1  UNL1        0.0047
     18 C          64.0454   82.6332   10.9465 C.3     1  UNL1        0.0003
     19 C          63.4414   83.9072   10.4347 C.3     1  UNL1        0.0001
     20 C          62.3471   84.5819   11.2075 C.3     1  UNL1        0.0026
     21 C          62.3416   86.0749   11.3522 C.3     1  UNL1        0.0321
     22 C          61.4665   86.9110   10.4661 C.3     1  UNL1        0.1427
     23 O          62.0556   88.0532    9.6924 O.3     1  UNL1       -0.3478
     24 C          61.8805   89.4601   10.1821 C.3     1  UNL1        0.1835
     25 C          62.2603   89.8175   11.5885 C.2     1  UNL1        0.0801
     26 O          61.2845   89.6013   12.7069 O.co2   1  UNL1       -0.5466
     27 O          63.6160   90.3913   11.8764 O.co2   1  UNL1       -0.5466
@<TRIPOS>UNITY_ATOM_ATTR
26 1
charge -1
@<TRIPOS>BOND
     1    11    12    1
     2    12    13   am
     3    13    14    2
     4    13     7    1
     5     7     8    2
     6     7     9   am
     7     9     6    1
     8     6     5    1
     9     5     4    1
    10     4     3    1
    11     3     1    1
    12     1     2    2
    13     2    16    1
    14    16    17    1
    15    17    18    1
    16    18    19    1
    17    19    20    1
    18    20    21    1
    19    21    22    1
    20    22    23    1
    21    23    24    1
    22    24    25    1
    23    25    26   ar
    24    25    27   ar
    25    12    15    1
    26     9    10    1
@<TRIPOS>MOLECULE
*****
 27 26 0 0 0
SMALL
GASTEIGER

@<TRIPOS>ATOM
      1 C          62.3179   88.1849    9.9802 C.2     1  UNL1       -0.0307
      2 C          61.7623   86.8393    9.6184 C.2     1  UNL1       -0.0307
      3 C          62.5971   88.5199   11.4153 C.3     1  UNL1        0.0258
      4 C          62.6711   89.9535   11.8501 C.3     1  UNL1        0.0064
      5 C          63.2439   90.9884   10.9276 C.3     1  UNL1        0.0216
      6 C          64.4210   91.8108   11.3614 C.3     1  UNL1        0.0898
      7 C          66.4301   93.3033   10.6646 C.2     1  UNL1        0.2995
      8 O          67.1922   92.8408   11.8709 O.2     1  UNL1       -0.2652
      9 N          65.0445   92.7883   10.4099 N.am    1  UNL1       -0.2971
     10 H          64.5443   93.0920    9.6181 H       1  UNL1        0.1499
     11 C          66.8137   96.2264    8.0078 C.3     1  UNL1        0.1111
     12 N          66.1903   95.2489    8.9594 N.am    1  UNL1       -0.2954
     13 C          67.0536   94.2809    9.7129 C.2     1  UNL1        0.2996
     14 O          68.5404   94.2905    9.5147 O.2     1  UNL1       -0.2652
     15 H          65.2144   95.2426    9.0895 H       1  UNL1        0.1499
     16 C          61.4861   85.8287   10.6919 C.3     1  UNL1        0.0257
     17 C          62.5821   84.9225   11.1689 C.3     1  UNL1        0.0047
     18 C          63.3700   84.1141   10.1811 C.3     1  UNL1        0.0003
     19 C          64.1256   82.9013   10.6375 C.3     1  UNL1        0.0001
     20 C          63.3919   81.6252   10.9261 C.3     1  UNL1        0.0026
     21 C          62.7896   81.3963   12.2806 C.3     1  UNL1        0.0321
     22 C          63.6227   81.5856   13.5136 C.3     1  UNL1        0.1427
     23 O          63.0342   82.2529   14.7212 O.3     1  UNL1       -0.3478
     24 C          62.4732   83.6399   14.6130 C.3     1  UNL1        0.1835
     25 C          62.9168   84.7052   15.5713 C.2     1  UNL1        0.0801
     26 O          61.9440   85.2775   16.5593 O.co2   1  UNL1       -0.5466
     27 O          64.3331   85.1982   15.5417 O.co2   1  UNL1       -0.5466
@<TRIPOS>UNITY_ATOM_ATTR
26 1
charge -1
@<TRIPOS>BOND
     1    11    12    1
     2    12    13   am
     3    13    14    2
     4    13     7    1
     5     7     8    2
     6     7     9   am
     7     9     6    1
     8     6     5    1
     9     5     4    1
    10     4     3    1
    11     3     1    1
    12     1     2    2
    13     2    16    1
    14    16    17    1
    15    17    18    1
    16    18    19    1
    17    19    20    1
    18    20    21    1
    19    21    22    1
    20    22    23    1
    21    23    24    1
    22    24    25    1
    23    25    26   ar
    24    25    27   ar
    25    12    15    1
    26     9    10    1
@<TRIPOS>MOLECULE
*****
 27 26 0 0 0
SMALL
GASTEIGER

@<TRIPOS>ATOM
      1 C          64.2413   83.3381   10.0256 C.2     1  UNL1       -0.0307
      2 C          64.0221   82.0986   10.8414 C.2     1  UNL1       -0.0307
      3 C          63.1533   84.3645    9.9137 C.3     1  UNL1        0.0258
      4 C          63.0813   85.2528    8.7072 C.3     1  UNL1        0.0064
      5 C          61.7663   85.4843    8.0235 C.3     1  UNL1        0.0216
      6 C          60.7761   86.4471    8.6086 C.3     1  UNL1        0.0898
      7 C          61.4067   87.8005   10.7348 C.2     1  UNL1        0.2995
      8 O          61.0841   86.6101   11.5883 O.2     1  UNL1       -0.2652
      9 N          61.2527   87.7191    9.2449 N.am    1  UNL1       -0.2971
     10 H          61.4645   88.5004    8.6847 H       1  UNL1        0.1499
     11 C          63.4299   91.1601   11.3435 C.3     1  UNL1        0.1111
     12 N          62.9532   89.8881   10.7073 N.am    1  UNL1       -0.2954
     13 C          61.8834   89.0726   11.3710 C.2     1  UNL1        0.2996
     14 O          61.2904   89.5291   12.6710 O.2     1  UNL1       -0.2652
     15 H          63.3424   89.5885    9.8541 H       1  UNL1        0.1499
     16 C          62.7148   81.8855   11.5453 C.3     1  UNL1        0.0257
     17 C          62.6927   81.2922   12.9228 C.3     1  UNL1        0.0047
     18 C          62.0366   82.0350   14.0489 C.3     1  UNL1        0.0003
     19 C          62.8379   82.9866   14.8871 C.3     1  UNL1        0.0001
     20 C          64.1164   83.5620   14.3538 C.3     1  UNL1        0.0026
     21 C          64.2188   85.0326   14.0765 C.3     1  UNL1        0.0321
     22 C          64.5114   85.9882   15.1951 C.3     1  UNL1        0.1427
     23 O          63.8057   87.3104   15.2559 O.3     1  UNL1       -0.3478
     24 C          64.3277   88.4761   14.4695 C.3     1  UNL1        0.1835
     25 C          64.0450   89.8764   14.9269 C.2     1  UNL1        0.0801
     26 O          62.8531   90.1560   15.7935 O.co2   1  UNL1       -0.5466
     27 O          64.9542   90.9971   14.5177 O.co2   1  UNL1       -0.5466
@<TRIPOS>UNITY_ATOM_ATTR
26 1
charge -1
@<TRIPOS>BOND
     1    11    12    1
     2    12    13   am
     3    13    14    2
     4    13     7    1
     5     7     8    2
     6     7     9   am
     7     9     6    1
     8     6     5    1
     9     5     4    1
    10     4     3    1
    11     3     1    1
    12     1     2    2
    13     2    16    1
    14    16    17    1
    15    17    18    1
    16    18    19    1
    17    19    20    1
    18    20    21    1
    19    21    22    1
    20    22    23    1
    21    23    24    1
    22    24    25    1
    23    25    26   ar
    24    25    27   ar
    25    12    15    1
    26     9    10    1
@<TRIPOS>MOLECULE
*****
 27 26 0 0 0
SMALL
GASTEIGER

@<TRIPOS>ATOM
      1 C          61.0237   85.9176    7.7687 C.2     1  UNL1       -0.0307
      2 C          62.2046   85.9984    8.6900 C.2     1  UNL1       -0.0307
      3 C          59.6800   86.4013    8.2275 C.3     1  UNL1        0.0258
      4 C          59.1590   87.7266    7.7563 C.3     1  UNL1        0.0064
      5 C          59.9491   88.9763    8.0100 C.3     1  UNL1        0.0216
      6 C          60.1351   89.4743    9.4126 C.3     1  UNL1        0.0898
      7 C          61.8795   90.1785   11.2045 C.2     1  UNL1        0.2995
      8 O          61.1185   89.4132   12.2462 O.2     1  UNL1       -0.2652
      9 N          61.3878   90.2090    9.7877 N.am    1  UNL1       -0.2971
     10 H          61.8873   90.7113    9.1040 H       1  UNL1        0.1499
     11 C          65.1304   92.4370   10.9190 C.3     1  UNL1        0.1111
     12 N          63.8776   91.7022   10.5440 N.am    1  UNL1       -0.2954
     13 C          63.1323   90.9134   11.5795 C.2     1  UNL1        0.2996
     14 O          63.6397   90.8594   12.9900 O.2     1  UNL1       -0.2652
     15 H          63.5446   91.7376    9.6183 H       1  UNL1        0.1499
     16 C          62.0419   86.5630   10.0701 C.3     1  UNL1        0.0257
     17 C          62.5976   85.8258   11.2523 C.3     1  UNL1        0.0047
     18 C          62.3034   84.3659   11.4319 C.3     1  UNL1        0.0003
     19 C          63.3893   83.3513   11.2281 C.3     1  UNL1        0.0001
     20 C          63.0992   81.8927   11.4234 C.3     1  UNL1        0.0026
     21 C          63.2045   81.2835   12.7901 C.3     1  UNL1        0.0321
     22 C          62.1390   81.5465   13.8126 C.3     1  UNL1        0.1427
     23 O          62.4681   82.3146   15.0583 O.3     1  UNL1       -0.3478
     24 C          62.5078   83.8137   15.0265 C.3     1  UNL1        0.1835
     25 C          63.8193   84.5319   15.1460 C.2     1  UNL1        0.0801
     26 O          64.9500   84.1872   14.2227 O.co2   1  UNL1       -0.5466
     27 O          64.0000   85.5948   16.1888 O.co2   1  UNL1       -0.5466
@<TRIPOS>UNITY_ATOM_ATTR
26 1
charge -1
@<TRIPOS>BOND
     1    11    12    1
     2    12    13   am
     3    13    14    2
     4    13     7    1
     5     7     8    2
     6     7     9   am
     7     9     6    1
     8     6     5    1
     9     5     4    1
    10     4     3    1
    11     3     1    1
    12     1     2    2
    13     2    16    1
    14    16    17    1
    15    17    18    1
    16    18    19    1
    17    19    20    1
    18    20    21    1
    19    21    22    1
    20    22    23    1
    21    23    24    1
    22    24    25    1
    23    25    26   ar
    24    25    27   ar
    25    12    15    1
    26     9    10    1
@<TRIPOS>MOLECULE
*****
 27 26 0 0 0
SMALL
GASTEIGER

@<TRIPOS>ATOM
      1 C          62.2008   86.3377    8.7417 C.2     1  UNL1       -0.0307
      2 C          63.1252   85.1564    8.7347 C.2     1  UNL1       -0.0307
      3 C          61.2623   86.5488    9.8926 C.3     1  UNL1        0.0258
      4 C          60.1392   87.5359    9.7732 C.3     1  UNL1        0.0064
      5 C          60.3916   88.9931   10.0245 C.3     1  UNL1        0.0216
      6 C          60.3417   89.5326   11.4232 C.3     1  UNL1        0.0898
      7 C          62.6962   90.0564   12.3885 C.2     1  UNL1        0.2995
      8 O          63.0015   88.5887   12.4402 O.2     1  UNL1       -0.2652
      9 N          61.3663   90.5283   11.8800 N.am    1  UNL1       -0.2971
     10 H          61.1659   91.4916   11.8460 H       1  UNL1        0.1499
     11 C          65.6137   92.7452   12.2971 C.3     1  UNL1        0.1111
     12 N          64.5892   91.7494   11.8404 N.am    1  UNL1       -0.2954
     13 C          63.7209   91.0522   12.8453 C.2     1  UNL1        0.2996
     14 O          63.8772   91.3506   14.3069 O.2     1  UNL1       -0.2652
     15 H          64.4866   91.5535   10.8810 H       1  UNL1        0.1499
     16 C          63.1110   84.1862    9.8786 C.3     1  UNL1        0.0257
     17 C          64.2418   83.2162   10.0533 C.3     1  UNL1        0.0047
     18 C          64.5092   82.6107   11.3994 C.3     1  UNL1        0.0003
     19 C          63.4364   81.8271   12.0959 C.3     1  UNL1        0.0001
     20 C          62.4450   82.5301   12.9750 C.3     1  UNL1        0.0026
     21 C          62.7729   83.8773   13.5472 C.3     1  UNL1        0.0321
     22 C          63.7694   83.9962   14.6621 C.3     1  UNL1        0.1427
     23 O          64.1245   85.3467   15.2098 O.3     1  UNL1       -0.3478
     24 C          63.7543   85.7058   16.6184 C.3     1  UNL1        0.1835
     25 C          62.6984   86.7396   16.8761 C.2     1  UNL1        0.0801
     26 O          61.2960   86.3154   17.1974 O.co2   1  UNL1       -0.5466
     27 O          63.0450   88.1976   16.8125 O.co2   1  UNL1       -0.5466
@<TRIPOS>UNITY_ATOM_ATTR
26 1
charge -1
@<TRIPOS>BOND
     1    11    12    1
     2    12    13   am
     3    13    14    2
     4    13     7    1
     5     7     8    2
     6     7     9   am
     7     9     6    1
     8     6     5    1
     9     5     4    1
    10     4     3    1
    11     3     1    1
    12     1     2    2
    13     2    16    1
    14    16    17    1
    15    17    18    1
    16    18    19    1
    17    19    20    1
    18    20    21    1
    19    21    22    1
    20    22    23    1
    21    23    24    1
    22    24    25    1
    23    25    26   ar
    24    25    27   ar
    25    12    15    1
    26     9    10    1
@<TRIPOS>MOLECULE
*****
 27 26 0 0 0
SMALL
GASTEIGER

@<TRIPOS>ATOM
      1 C          61.1482   87.3184   10.9060 C.2     1  UNL1       -0.0307
      2 C          61.0169   86.4952    9.6590 C.2     1  UNL1       -0.0307
      3 C          62.4444   88.0059   11.2177 C.3     1  UNL1        0.0258
      4 C          62.4603   89.4751   11.5201 C.3     1  UNL1        0.0064
      5 C          62.5170   90.4708   10.3997 C.3     1  UNL1        0.0216
      6 C          63.5415   91.5663   10.4211 C.3     1  UNL1        0.0898
      7 C          65.7085   92.5624   11.4514 C.2     1  UNL1        0.2995
      8 O          65.9307   93.3677   10.2057 O.2     1  UNL1       -0.2652
      9 N          64.5139   91.6616   11.5591 N.am    1  UNL1       -0.2971
     10 H          64.3681   91.1331   12.3768 H       1  UNL1        0.1499
     11 C          67.2884   93.5207   14.9637 C.3     1  UNL1        0.1111
     12 N          66.3160   93.4253   13.8255 N.am    1  UNL1       -0.2954
     13 C          66.6810   92.6577   12.5896 C.2     1  UNL1        0.2996
     14 O          68.0183   91.9855   12.4917 O.2     1  UNL1       -0.2652
     15 H          65.4383   93.8665   13.8898 H       1  UNL1        0.1499
     16 C          62.1817   86.3594    8.7237 C.3     1  UNL1        0.0257
     17 C          63.0567   85.1427    8.7872 C.3     1  UNL1        0.0047
     18 C          63.1758   84.3706   10.0678 C.3     1  UNL1        0.0003
     19 C          64.1550   83.2391   10.1730 C.3     1  UNL1        0.0001
     20 C          63.8766   82.0898   11.0957 C.3     1  UNL1        0.0026
     21 C          64.2686   82.1764   12.5410 C.3     1  UNL1        0.0321
     22 C          63.6737   81.2262   13.5377 C.3     1  UNL1        0.1427
     23 O          62.9251   81.7560   14.7247 O.3     1  UNL1       -0.3478
     24 C          62.2652   83.1012   14.6558 C.3     1  UNL1        0.1835
     25 C          62.8557   84.2650   15.3953 C.2     1  UNL1        0.0801
     26 O          64.3042   84.6107   15.2159 O.co2   1  UNL1       -0.5466
     27 O          61.9977   85.0831   16.3142 O.co2   1  UNL1       -0.5466
@<TRIPOS>UNITY_ATOM_ATTR
26 1
charge -1
@<TRIPOS>BOND
     1    11    12    1
     2    12    13   am
     3    13    14    2
     4    13     7    1
     5     7     8    2
     6     7     9   am
     7     9     6    1
     8     6     5    1
     9     5     4    1
    10     4     3    1
    11     3     1    1
    12     1     2    2
    13     2    16    1
    14    16    17    1
    15    17    18    1
    16    18    19    1
    17    19    20    1
    18    20    21    1
    19    21    22    1
    20    22    23    1
    21    23    24    1
    22    24    25    1
    23    25    26   ar
    24    25    27   ar
    25    12    15    1
    26     9    10    1
@<TRIPOS>MOLECULE
*****
 27 26 0 0 0
SMALL
GASTEIGER

@<TRIPOS>ATOM
      1 C          62.3419   83.2333   14.9767 C.2     1  UNL1       -0.0307
      2 C          61.9812   81.9276   14.3325 C.2     1  UNL1       -0.0307
      3 C          63.7640   83.7101   14.9603 C.3     1  UNL1        0.0258
      4 C          64.1262   85.0117   15.6119 C.3     1  UNL1        0.0064
      5 C          64.6853   86.1332   14.7875 C.3     1  UNL1        0.0216
      6 C          63.9007   87.3998   14.6139 C.3     1  UNL1        0.0898
      7 C          63.9056   89.9079   13.9362 C.2     1  UNL1        0.2995
      8 O          62.4843   89.7855   13.4729 O.2     1  UNL1       -0.2652
      9 N          64.6139   88.7150   14.5067 N.am    1  UNL1       -0.2971
     10 H          65.5468   88.7954   14.8108 H       1  UNL1        0.1499
     11 C          65.7130   93.0774   12.3749 C.3     1  UNL1        0.1111
     12 N          64.9998   91.7622   12.4821 N.am    1  UNL1       -0.2954
     13 C          64.6189   91.2232   13.8291 C.2     1  UNL1        0.2996
     14 O          64.9511   91.9994   15.0688 O.2     1  UNL1       -0.2652
     15 H          64.7818   91.2527   11.6684 H       1  UNL1        0.1499
     16 C          63.0425   81.0987   13.6719 C.3     1  UNL1        0.0257
     17 C          62.8172   80.5515   12.2935 C.3     1  UNL1        0.0047
     18 C          63.0305   81.4277   11.0948 C.3     1  UNL1        0.0003
     19 C          64.1730   82.3993   11.0697 C.3     1  UNL1        0.0001
     20 C          63.9555   83.8237   11.4867 C.3     1  UNL1        0.0026
     21 C          62.6261   84.4785   11.2545 C.3     1  UNL1        0.0321
     22 C          62.4249   85.9187   11.6225 C.3     1  UNL1        0.1427
     23 O          61.0492   86.5158   11.5909 O.3     1  UNL1       -0.3478
     24 C          60.7819   87.7405   10.7673 C.3     1  UNL1        0.1835
     25 C          60.3306   87.6030    9.3434 C.2     1  UNL1        0.0801
     26 O          60.0650   88.8277    8.5192 O.co2   1  UNL1       -0.5466
     27 O          60.1449   86.2407    8.7437 O.co2   1  UNL1       -0.5466
@<TRIPOS>UNITY_ATOM_ATTR
26 1
charge -1
@<TRIPOS>BOND
     1    11    12    1
     2    12    13   am
     3    13    14    2
     4    13     7    1
     5     7     8    2
     6     7     9   am
     7     9     6    1
     8     6     5    1
     9     5     4    1
    10     4     3    1
    11     3     1    1
    12     1     2    2
    13     2    16    1
    14    16    17    1
    15    17    18    1
    16    18    19    1
    17    19    20    1
    18    20    21    1
    19    21    22    1
    20    22    23    1
    21    23    24    1
    22    24    25    1
    23    25    26   ar
    24    25    27   ar
    25    12    15    1
    26     9    10    1
