@<TRIPOS>MOLECULE
*****
 29 32 0 0 0
SMALL
GASTEIGER

@<TRIPOS>ATOM
      1 C          64.1362   89.0896   15.1785 C.ar    1  UNL1        0.0536
      2 C          64.5483   87.9866   14.2492 C.ar    1  UNL1        0.0076
      3 C          64.2122   86.5626   14.5798 C.ar    1  UNL1        0.0370
      4 C          63.4640   86.2417   15.8396 C.ar    1  UNL1        0.1384
      5 C          63.0519   87.3446   16.7689 C.ar    1  UNL1        0.0370
      6 C          63.3880   88.7686   16.4383 C.ar    1  UNL1        0.0076
      7 N          65.6404   90.8216   13.9589 N.am    1  UNL1       -0.3011
      8 C          64.4722   90.5136   14.8479 C.2     1  UNL1        0.2458
      9 O          63.6400   91.6297   15.4064 O.2     1  UNL1       -0.2701
     10 H          66.1866   90.0891   13.5923 H       1  UNL1        0.1497
     11 N          66.3112   94.3136   12.4028 N.3     1  UNL1       -0.2725
     12 C          66.6761   94.5604   13.8367 C.3     1  UNL1        0.0738
     13 C          66.4692   93.2822   14.5942 C.3     1  UNL1        0.0383
     14 C          65.9765   92.2457   13.6283 C.3     1  UNL1        0.0892
     15 C          65.8789   92.8831   12.2740 C.3     1  UNL1        0.0919
     16 C          65.8861   96.7218   11.5251 C.3     1  UNL1        0.0173
     17 C          66.3686   95.3206   11.2926 C.3     1  UNL1        0.0576
     18 C          66.9086   94.9266    9.9498 C.3     1  UNL1        0.0173
     19 O          63.1280   84.8176   16.1702 O.3     1  UNL1       -0.4791
     20 C          63.0779   83.7867   15.0817 C.3     1  UNL1        0.1687
     21 C          64.2083   83.6748   14.1022 C.3     1  UNL1        0.0609
     22 C          64.1582   82.6439   13.0137 C.3     1  UNL1        0.0758
     23 N          62.9776   81.7250   12.9048 N.3     1  UNL1       -0.2737
     24 C          61.8472   81.8369   13.8844 C.3     1  UNL1        0.0758
     25 C          61.8973   82.8678   14.9728 C.3     1  UNL1        0.0609
     26 C          62.9276   80.6941   11.8163 C.3     1  UNL1        0.0575
     27 C          63.1535   80.7054   10.3335 C.3     1  UNL1        0.0160
     28 C          62.8567   79.2362   10.2770 C.3     1  UNL1        0.0028
     29 C          62.6308   79.2248   11.7598 C.3     1  UNL1        0.0160
@<TRIPOS>BOND
     1    16    17    1
     2    17    18    1
     3    17    11    1
     4    11    12    1
     5    12    13    1
     6    13    14    1
     7    14     7    1
     8     7     8   am
     9     8     9    2
    10     8     1    1
    11     1     2   ar
    12     2     3   ar
    13     3     4   ar
    14     4    19    1
    15    19    20    1
    16    20    21    1
    17    21    22    1
    18    22    23    1
    19    23    26    1
    20    26    27    1
    21    27    28    1
    22    28    29    1
    23    23    24    1
    24    24    25    1
    25     4     5   ar
    26     5     6   ar
    27    14    15    1
    28    15    11    1
    29     6     1   ar
    30    25    20    1
    31    29    26    1
    32     7    10    1
@<TRIPOS>MOLECULE
*****
 29 32 0 0 0
SMALL
GASTEIGER

@<TRIPOS>ATOM
      1 C          60.0678   92.1706    3.7460 C.ar    1  UNL1        0.0536
      2 C          60.9933   91.2664    4.5048 C.ar    1  UNL1        0.0076
      3 C          60.4562   90.3876    5.5953 C.ar    1  UNL1        0.0370
      4 C          58.9936   90.4131    5.9270 C.ar    1  UNL1        0.1384
      5 C          58.0680   91.3173    5.1683 C.ar    1  UNL1        0.0370
      6 C          58.6052   92.1960    4.0778 C.ar    1  UNL1        0.0076
      7 N          61.6625   92.5308    1.7268 N.am    1  UNL1       -0.3011
      8 C          60.6049   93.0494    2.6555 C.2     1  UNL1        0.2458
      9 O          60.0844   94.4469    2.4936 O.2     1  UNL1       -0.2701
     10 H          62.0041   91.6136    1.8330 H       1  UNL1        0.1497
     11 N          63.6132   94.9389   -0.6102 N.3     1  UNL1       -0.2725
     12 C          62.4388   94.5850   -1.4738 C.3     1  UNL1        0.0738
     13 C          61.5651   93.6398   -0.7034 C.3     1  UNL1        0.0383
     14 C          62.1996   93.4096    0.6362 C.3     1  UNL1        0.0892
     15 C          63.4653   94.2124    0.6938 C.3     1  UNL1        0.0919
     16 C          65.0431   96.1194   -2.4300 C.3     1  UNL1        0.0173
     17 C          64.7379   95.8578   -0.9849 C.3     1  UNL1        0.0576
     18 C          65.5577   96.5152    0.0856 C.3     1  UNL1        0.0173
     19 O          58.4564   89.5342    7.0176 O.3     1  UNL1       -0.4791
     20 C          59.3627   88.5607    7.7110 C.3     1  UNL1        0.1687
     21 C          60.3097   89.0413    8.7704 C.3     1  UNL1        0.0609
     22 C          61.2160   88.0677    9.4639 C.3     1  UNL1        0.0758
     23 N          61.1753   86.6136    9.0979 N.3     1  UNL1       -0.2737
     24 C          60.2283   86.1331    8.0385 C.3     1  UNL1        0.0758
     25 C          59.3221   87.1066    7.3451 C.3     1  UNL1        0.0609
     26 C          62.0816   85.6401    9.7914 C.3     1  UNL1        0.0575
     27 C          63.1711   84.7073    9.3523 C.3     1  UNL1        0.0160
     28 C          63.3633   84.2634   10.7721 C.3     1  UNL1        0.0028
     29 C          62.2738   85.1962   11.2112 C.3     1  UNL1        0.0160
@<TRIPOS>BOND
     1    16    17    1
     2    17    18    1
     3    17    11    1
     4    11    12    1
     5    12    13    1
     6    13    14    1
     7    14     7    1
     8     7     8   am
     9     8     9    2
    10     8     1    1
    11     1     2   ar
    12     2     3   ar
    13     3     4   ar
    14     4    19    1
    15    19    20    1
    16    20    21    1
    17    21    22    1
    18    22    23    1
    19    23    26    1
    20    26    27    1
    21    27    28    1
    22    28    29    1
    23    23    24    1
    24    24    25    1
    25     4     5   ar
    26     5     6   ar
    27    14    15    1
    28    15    11    1
    29     6     1   ar
    30    25    20    1
    31    29    26    1
    32     7    10    1
@<TRIPOS>MOLECULE
*****
 29 32 0 0 0
SMALL
GASTEIGER

@<TRIPOS>ATOM
      1 C          63.7848   85.9913   13.5200 C.ar    1  UNL1        0.0536
      2 C          63.1859   86.8673   12.4599 C.ar    1  UNL1        0.0076
      3 C          63.2003   88.3584   12.6229 C.ar    1  UNL1        0.0370
      4 C          63.8135   88.9733   13.8460 C.ar    1  UNL1        0.1384
      5 C          64.4124   88.0972   14.9060 C.ar    1  UNL1        0.0370
      6 C          64.3981   86.6062   14.7430 C.ar    1  UNL1        0.0076
      7 N          62.5236   83.8085   12.8917 N.am    1  UNL1       -0.3011
      8 C          63.7705   84.5001   13.3570 C.2     1  UNL1        0.2458
      9 O          65.0032   83.7008   13.6595 O.2     1  UNL1       -0.2701
     10 H          61.7145   84.3331   12.6932 H       1  UNL1        0.1497
     11 N          62.6248   80.1016   11.7450 N.3     1  UNL1       -0.2725
     12 C          62.3497   79.9441   13.2112 C.3     1  UNL1        0.0738
     13 C          62.2783   81.3135   13.8192 C.3     1  UNL1        0.0383
     14 C          62.5093   82.3174   12.7288 C.3     1  UNL1        0.0892
     15 C          62.7234   81.5684   11.4469 C.3     1  UNL1        0.0919
     16 C          62.9685   79.3011    9.2973 C.3     1  UNL1        0.0173
     17 C          62.7749   78.9880   10.7515 C.3     1  UNL1        0.0576
     18 C          62.7313   77.5611   11.2120 C.3     1  UNL1        0.0173
     19 O          63.8278   90.4644   14.0089 O.3     1  UNL1       -0.4791
     20 C          64.5745   91.3189   13.0280 C.3     1  UNL1        0.1687
     21 C          65.8520   91.9896   13.4379 C.3     1  UNL1        0.0609
     22 C          66.5987   92.8442   12.4568 C.3     1  UNL1        0.0758
     23 N          66.0678   93.0280   11.0661 N.3     1  UNL1       -0.2737
     24 C          64.7902   92.3573   10.6562 C.3     1  UNL1        0.0758
     25 C          64.0435   91.5028   11.6371 C.3     1  UNL1        0.0609
     26 C          66.8144   93.8825   10.0852 C.3     1  UNL1        0.0575
     27 C          67.8870   93.6370    9.0657 C.3     1  UNL1        0.0160
     28 C          67.8704   95.0910    8.6979 C.3     1  UNL1        0.0028
     29 C          66.7978   95.3367    9.7174 C.3     1  UNL1        0.0160
@<TRIPOS>BOND
     1    16    17    1
     2    17    18    1
     3    17    11    1
     4    11    12    1
     5    12    13    1
     6    13    14    1
     7    14     7    1
     8     7     8   am
     9     8     9    2
    10     8     1    1
    11     1     2   ar
    12     2     3   ar
    13     3     4   ar
    14     4    19    1
    15    19    20    1
    16    20    21    1
    17    21    22    1
    18    22    23    1
    19    23    26    1
    20    26    27    1
    21    27    28    1
    22    28    29    1
    23    23    24    1
    24    24    25    1
    25     4     5   ar
    26     5     6   ar
    27    14    15    1
    28    15    11    1
    29     6     1   ar
    30    25    20    1
    31    29    26    1
    32     7    10    1
@<TRIPOS>MOLECULE
*****
 29 32 0 0 0
SMALL
GASTEIGER

@<TRIPOS>ATOM
      1 C          60.6961   87.2474    9.1544 C.ar    1  UNL1        0.0536
      2 C          60.7839   88.7233    9.4075 C.ar    1  UNL1        0.0076
      3 C          60.0846   89.6840    8.4921 C.ar    1  UNL1        0.0370
      4 C          59.2975   89.1689    7.3237 C.ar    1  UNL1        0.1384
      5 C          59.2097   87.6930    7.0707 C.ar    1  UNL1        0.0370
      6 C          59.9090   86.7323    7.9860 C.ar    1  UNL1        0.0076
      7 N          62.3111   85.2424    9.5033 N.am    1  UNL1       -0.3011
      8 C          61.3954   86.2866   10.0698 C.2     1  UNL1        0.2458
      9 O          61.1790   86.3701   11.5518 O.2     1  UNL1       -0.2701
     10 H          62.4531   85.1876    8.5306 H       1  UNL1        0.1497
     11 N          63.6087   82.9797   12.3777 N.3     1  UNL1       -0.2725
     12 C          64.5644   82.6264   11.2767 C.3     1  UNL1        0.0738
     13 C          64.1945   83.4310   10.0659 C.3     1  UNL1        0.0383
     14 C          63.0104   84.2816   10.4187 C.3     1  UNL1        0.0892
     15 C          62.6484   84.0027   11.8473 C.3     1  UNL1        0.0919
     16 C          63.3758   80.9439   13.9749 C.3     1  UNL1        0.0173
     17 C          63.6128   82.4101   13.7652 C.3     1  UNL1        0.0576
     18 C          63.8538   83.3068   14.9433 C.3     1  UNL1        0.0173
     19 O          58.5982   90.1297    6.4083 O.3     1  UNL1       -0.4791
     20 C          59.3766   90.8694    5.3610 C.3     1  UNL1        0.1687
     21 C          60.8352   90.5789    5.1657 C.3     1  UNL1        0.0609
     22 C          61.6136   91.3186    4.1184 C.3     1  UNL1        0.0758
     23 N          60.9335   92.3489    3.2664 N.3     1  UNL1       -0.2737
     24 C          59.4749   92.6394    3.4617 C.3     1  UNL1        0.0758
     25 C          58.6965   91.8997    4.5090 C.3     1  UNL1        0.0609
     26 C          61.7119   93.0885    2.2191 C.3     1  UNL1        0.0575
     27 C          61.3928   94.1611    1.2202 C.3     1  UNL1        0.0160
     28 C          62.8128   94.1347    0.7379 C.3     1  UNL1        0.0028
     29 C          63.1320   93.0621    1.7368 C.3     1  UNL1        0.0160
@<TRIPOS>BOND
     1    16    17    1
     2    17    18    1
     3    17    11    1
     4    11    12    1
     5    12    13    1
     6    13    14    1
     7    14     7    1
     8     7     8   am
     9     8     9    2
    10     8     1    1
    11     1     2   ar
    12     2     3   ar
    13     3     4   ar
    14     4    19    1
    15    19    20    1
    16    20    21    1
    17    21    22    1
    18    22    23    1
    19    23    26    1
    20    26    27    1
    21    27    28    1
    22    28    29    1
    23    23    24    1
    24    24    25    1
    25     4     5   ar
    26     5     6   ar
    27    14    15    1
    28    15    11    1
    29     6     1   ar
    30    25    20    1
    31    29    26    1
    32     7    10    1
@<TRIPOS>MOLECULE
*****
 29 32 0 0 0
SMALL
GASTEIGER

@<TRIPOS>ATOM
      1 C          64.5787   90.5945   14.8844 C.ar    1  UNL1        0.0536
      2 C          64.8510   89.2522   14.2728 C.ar    1  UNL1        0.0076
      3 C          64.3409   88.0079   14.9373 C.ar    1  UNL1        0.0370
      4 C          63.5586   88.1060   16.2133 C.ar    1  UNL1        0.1384
      5 C          63.2863   89.4483   16.8249 C.ar    1  UNL1        0.0370
      6 C          63.7964   90.6925   16.1604 C.ar    1  UNL1        0.0076
      7 N          65.0892   91.9438   12.7236 N.am    1  UNL1       -0.3011
      8 C          65.0888   91.8389   14.2199 C.2     1  UNL1        0.2458
      9 O          65.5985   92.9782   15.0518 O.2     1  UNL1       -0.2701
     10 H          64.7546   91.1960   12.1776 H       1  UNL1        0.1497
     11 N          66.1611   94.8390   10.3710 N.3     1  UNL1       -0.2725
     12 C          66.6073   95.3670   11.7023 C.3     1  UNL1        0.0738
     13 C          66.2600   94.3467   12.7457 C.3     1  UNL1        0.0383
     14 C          65.5992   93.1882   12.0591 C.3     1  UNL1        0.0892
     15 C          65.5381   93.4924   10.5916 C.3     1  UNL1        0.0919
     16 C          65.4904   96.7534    8.7477 C.3     1  UNL1        0.0173
     17 C          66.3115   95.5353    9.0511 C.3     1  UNL1        0.0576
     18 C          67.2830   95.0136    8.0343 C.3     1  UNL1        0.0173
     19 O          63.0485   86.8616   16.8778 O.3     1  UNL1       -0.4791
     20 C          62.9743   85.5766   16.1076 C.3     1  UNL1        0.1687
     21 C          61.6399   84.9821   15.7674 C.3     1  UNL1        0.0609
     22 C          61.5657   83.6970   14.9972 C.3     1  UNL1        0.0758
     23 N          62.8260   83.0066   14.5672 N.3     1  UNL1       -0.2737
     24 C          64.1605   83.6011   14.9074 C.3     1  UNL1        0.0758
     25 C          64.2347   84.8861   15.6776 C.3     1  UNL1        0.0609
     26 C          62.7518   81.7216   13.7969 C.3     1  UNL1        0.0575
     27 C          61.7086   80.6620   13.5994 C.3     1  UNL1        0.0160
     28 C          62.6469   79.9043   12.7077 C.3     1  UNL1        0.0028
     29 C          63.6902   80.9638   12.9052 C.3     1  UNL1        0.0160
@<TRIPOS>BOND
     1    16    17    1
     2    17    18    1
     3    17    11    1
     4    11    12    1
     5    12    13    1
     6    13    14    1
     7    14     7    1
     8     7     8   am
     9     8     9    2
    10     8     1    1
    11     1     2   ar
    12     2     3   ar
    13     3     4   ar
    14     4    19    1
    15    19    20    1
    16    20    21    1
    17    21    22    1
    18    22    23    1
    19    23    26    1
    20    26    27    1
    21    27    28    1
    22    28    29    1
    23    23    24    1
    24    24    25    1
    25     4     5   ar
    26     5     6   ar
    27    14    15    1
    28    15    11    1
    29     6     1   ar
    30    25    20    1
    31    29    26    1
    32     7    10    1
@<TRIPOS>MOLECULE
*****
 29 32 0 0 0
SMALL
GASTEIGER

@<TRIPOS>ATOM
      1 C          62.8322   86.0385   11.8885 C.ar    1  UNL1        0.0536
      2 C          62.1691   86.9467   10.8959 C.ar    1  UNL1        0.0076
      3 C          62.2412   88.4341   11.0753 C.ar    1  UNL1        0.0370
      4 C          62.9766   89.0134   12.2473 C.ar    1  UNL1        0.1384
      5 C          63.6398   88.1052   13.2400 C.ar    1  UNL1        0.0370
      6 C          63.5676   86.6177   13.0605 C.ar    1  UNL1        0.0076
      7 N          62.6499   83.6555   12.9074 N.am    1  UNL1       -0.3011
      8 C          62.7601   84.5509   11.7091 C.2     1  UNL1        0.2458
      9 O          62.7981   83.9590   10.3314 O.2     1  UNL1       -0.2701
     10 H          62.6249   84.0440   13.8116 H       1  UNL1        0.1497
     11 N          62.6347   79.9584   11.7253 N.3     1  UNL1       -0.2725
     12 C          62.2987   79.7994   13.1786 C.3     1  UNL1        0.0738
     13 C          62.2635   81.1651   13.7983 C.3     1  UNL1        0.0383
     14 C          62.5777   82.1679   12.7280 C.3     1  UNL1        0.0892
     15 C          62.8071   81.4222   11.4469 C.3     1  UNL1        0.0919
     16 C          62.9622   79.1671    9.2725 C.3     1  UNL1        0.0173
     17 C          62.7738   78.8485   10.7261 C.3     1  UNL1        0.0576
     18 C          62.7244   77.4198   11.1804 C.3     1  UNL1        0.0173
     19 O          63.0487   90.5009   12.4267 O.3     1  UNL1       -0.4791
     20 C          64.2542   91.1213   13.0685 C.3     1  UNL1        0.1687
     21 C          65.1755   91.9836   12.2574 C.3     1  UNL1        0.0609
     22 C          66.3810   92.6040   12.8992 C.3     1  UNL1        0.0758
     23 N          66.6652   92.3622   14.3520 N.3     1  UNL1       -0.2737
     24 C          65.7439   91.5000   15.1631 C.3     1  UNL1        0.0758
     25 C          64.5384   90.8796   14.5214 C.3     1  UNL1        0.0609
     26 C          67.8706   92.9827   14.9938 C.3     1  UNL1        0.0575
     27 C          68.0970   94.1054   15.9625 C.3     1  UNL1        0.0160
     28 C          69.5754   93.8601   15.9014 C.3     1  UNL1        0.0028
     29 C          69.3492   92.7374   14.9327 C.3     1  UNL1        0.0160
@<TRIPOS>BOND
     1    16    17    1
     2    17    18    1
     3    17    11    1
     4    11    12    1
     5    12    13    1
     6    13    14    1
     7    14     7    1
     8     7     8   am
     9     8     9    2
    10     8     1    1
    11     1     2   ar
    12     2     3   ar
    13     3     4   ar
    14     4    19    1
    15    19    20    1
    16    20    21    1
    17    21    22    1
    18    22    23    1
    19    23    26    1
    20    26    27    1
    21    27    28    1
    22    28    29    1
    23    23    24    1
    24    24    25    1
    25     4     5   ar
    26     5     6   ar
    27    14    15    1
    28    15    11    1
    29     6     1   ar
    30    25    20    1
    31    29    26    1
    32     7    10    1
@<TRIPOS>MOLECULE
*****
 29 32 0 0 0
SMALL
GASTEIGER

@<TRIPOS>ATOM
      1 C          61.9221   89.5245   10.8013 C.ar    1  UNL1        0.0536
      2 C          60.8435   90.5426   10.5777 C.ar    1  UNL1        0.0076
      3 C          59.9127   90.4048    9.4095 C.ar    1  UNL1        0.0370
      4 C          60.0606   89.2490    8.4649 C.ar    1  UNL1        0.1384
      5 C          61.1393   88.2310    8.6885 C.ar    1  UNL1        0.0370
      6 C          62.0700   88.3687    9.8567 C.ar    1  UNL1        0.0076
      7 N          63.3288   91.0202   12.3933 N.am    1  UNL1       -0.3011
      8 C          62.8530   89.6623   11.9695 C.2     1  UNL1        0.2458
      9 O          63.3079   88.4420   12.7138 O.2     1  UNL1       -0.2701
     10 H          63.0302   91.8210   11.9047 H       1  UNL1        0.1497
     11 N          66.2378   91.5964   14.8975 N.3     1  UNL1       -0.2725
     12 C          65.1460   91.1432   15.8209 C.3     1  UNL1        0.0738
     13 C          63.9233   90.8722   14.9951 C.3     1  UNL1        0.0383
     14 C          64.2596   91.1579   13.5615 C.3     1  UNL1        0.0892
     15 C          65.6900   91.6054   13.5011 C.3     1  UNL1        0.0919
     16 C          68.7299   91.9901   14.2772 C.3     1  UNL1        0.0173
     17 C          67.6326   91.9741   15.2998 C.3     1  UNL1        0.0576
     18 C          67.9301   92.3358   16.7248 C.3     1  UNL1        0.0173
     19 O          59.1298   89.1113    7.2967 O.3     1  UNL1       -0.4791
     20 C          59.2395   90.0540    6.1351 C.3     1  UNL1        0.1687
     21 C          60.5788   90.3344    5.5207 C.3     1  UNL1        0.0609
     22 C          60.6884   91.2772    4.3591 C.3     1  UNL1        0.0758
     23 N          59.4588   91.9394    3.8119 N.3     1  UNL1       -0.2737
     24 C          58.1195   91.6589    4.4264 C.3     1  UNL1        0.0758
     25 C          58.0098   90.7162    5.5879 C.3     1  UNL1        0.0609
     26 C          59.5685   92.8821    2.6504 C.3     1  UNL1        0.0575
     27 C          59.0628   92.8886    1.2382 C.3     1  UNL1        0.0160
     28 C          59.7236   94.2152    1.0076 C.3     1  UNL1        0.0028
     29 C          60.2293   94.2088    2.4198 C.3     1  UNL1        0.0160
@<TRIPOS>BOND
     1    16    17    1
     2    17    18    1
     3    17    11    1
     4    11    12    1
     5    12    13    1
     6    13    14    1
     7    14     7    1
     8     7     8   am
     9     8     9    2
    10     8     1    1
    11     1     2   ar
    12     2     3   ar
    13     3     4   ar
    14     4    19    1
    15    19    20    1
    16    20    21    1
    17    21    22    1
    18    22    23    1
    19    23    26    1
    20    26    27    1
    21    27    28    1
    22    28    29    1
    23    23    24    1
    24    24    25    1
    25     4     5   ar
    26     5     6   ar
    27    14    15    1
    28    15    11    1
    29     6     1   ar
    30    25    20    1
    31    29    26    1
    32     7    10    1
