@<TRIPOS>MOLECULE
*****
 13 14 0 0 0
SMALL
GASTEIGER

@<TRIPOS>ATOM
      1 N          60.0663   87.1848    9.0117 N.ar    1  UNL1       -0.3079
      2 C          60.0679   87.8499   10.3562 C.ar    1  UNL1        0.1785
      3 N          60.9887   87.0778   11.2541 N.ar    1  UNL1       -0.2238
      4 C          61.5561   85.9357   10.4645 C.ar    1  UNL1        0.1017
      5 C          60.9861   86.0017    9.0787 C.ar    1  UNL1        0.0965
      6 C          62.5238   84.9078   10.9718 C.ar    1  UNL1        0.0383
      7 C          63.3445   84.1082   10.0039 C.ar    1  UNL1        0.0047
      8 C          64.3120   83.0804   10.5112 C.ar    1  UNL1        0.0207
      9 C          64.4589   82.8523   11.9864 C.ar    1  UNL1        0.0989
     10 N          63.6383   83.6519   12.9544 N.ar    1  UNL1       -0.2423
     11 C          62.6707   84.6797   12.4471 C.ar    1  UNL1        0.1004
     12 C          59.4584   89.0126    7.2683 C.3     1  UNL1        0.0265
     13 C          59.2825   87.6254    7.8110 C.3     1  UNL1        0.1077
@<TRIPOS>BOND
     1    12    13    1
     2    13     1    1
     3     1     2   ar
     4     2     3   ar
     5     3     4   ar
     6     4     6    1
     7     6     7   ar
     8     7     8   ar
     9     8     9   ar
    10     9    10   ar
    11    10    11   ar
    12     4     5   ar
    13     5     1   ar
    14    11     6   ar
@<TRIPOS>MOLECULE
*****
 13 14 0 0 0
SMALL
GASTEIGER

@<TRIPOS>ATOM
      1 N          66.4411   92.5865   14.8029 N.ar    1  UNL1       -0.3079
      2 C          66.4247   93.5788   13.6781 C.ar    1  UNL1        0.1785
      3 N          65.5079   93.0560   12.6123 N.ar    1  UNL1       -0.2238
      4 C          64.9576   91.7407   13.0783 C.ar    1  UNL1        0.1017
      5 C          65.5344   91.4505   14.4322 C.ar    1  UNL1        0.0965
      6 C          63.9989   90.8687   12.3230 C.ar    1  UNL1        0.0383
      7 C          63.5338   91.2741   10.9558 C.ar    1  UNL1        0.0047
      8 C          62.5751   90.4020   10.2005 C.ar    1  UNL1        0.0207
      9 C          62.0815   89.1246   10.8125 C.ar    1  UNL1        0.0989
     10 N          62.5466   88.7192   12.1797 N.ar    1  UNL1       -0.2423
     11 C          63.5052   89.5912   12.9349 C.ar    1  UNL1        0.1004
     12 C          68.7256   92.7270   16.0323 C.3     1  UNL1        0.0265
     13 C          67.2264   92.7088   16.0751 C.3     1  UNL1        0.1077
@<TRIPOS>BOND
     1    12    13    1
     2    13     1    1
     3     1     2   ar
     4     2     3   ar
     5     3     4   ar
     6     4     6    1
     7     6     7   ar
     8     7     8   ar
     9     8     9   ar
    10     9    10   ar
    11    10    11   ar
    12     4     5   ar
    13     5     1   ar
    14    11     6   ar
@<TRIPOS>MOLECULE
*****
 13 14 0 0 0
SMALL
GASTEIGER

@<TRIPOS>ATOM
      1 N          65.3763   91.2912   13.9812 N.ar    1  UNL1       -0.3079
      2 C          66.7708   91.5467   14.4714 C.ar    1  UNL1        0.1785
      3 N          67.4772   92.3816   13.4448 N.ar    1  UNL1       -0.2238
      4 C          66.5194   92.6423   12.3203 C.ar    1  UNL1        0.1017
      5 C          65.2209   91.9684   12.6518 C.ar    1  UNL1        0.0965
      6 C          66.8092   93.4372   11.0817 C.ar    1  UNL1        0.0383
      7 C          67.6342   92.8379    9.9817 C.ar    1  UNL1        0.0047
      8 C          67.9240   93.6329    8.7432 C.ar    1  UNL1        0.0207
      9 C          67.3886   95.0272    8.6046 C.ar    1  UNL1        0.0989
     10 N          66.5636   95.6266    9.7046 N.ar    1  UNL1       -0.2423
     11 C          66.2738   94.8316   10.9431 C.ar    1  UNL1        0.1004
     12 C          64.2709   89.0071   14.5386 C.3     1  UNL1        0.0265
     13 C          64.3222   90.4980   14.6951 C.3     1  UNL1        0.1077
@<TRIPOS>BOND
     1    12    13    1
     2    13     1    1
     3     1     2   ar
     4     2     3   ar
     5     3     4   ar
     6     4     6    1
     7     6     7   ar
     8     7     8   ar
     9     8     9   ar
    10     9    10   ar
    11    10    11   ar
    12     4     5   ar
    13     5     1   ar
    14    11     6   ar
@<TRIPOS>MOLECULE
*****
 13 14 0 0 0
SMALL
GASTEIGER

@<TRIPOS>ATOM
      1 N          63.5298   90.4894   11.6798 N.ar    1  UNL1       -0.3079
      2 C          63.3495   89.3133   12.5934 C.ar    1  UNL1        0.1785
      3 N          62.4464   88.3298   11.9100 N.ar    1  UNL1       -0.2238
      4 C          62.0685   88.8980   10.5741 C.ar    1  UNL1        0.1017
      5 C          62.7381   90.2326   10.4319 C.ar    1  UNL1        0.0965
      6 C          61.1775   88.2459    9.5588 C.ar    1  UNL1        0.0383
      7 C          61.3059   86.7774    9.2811 C.ar    1  UNL1        0.0047
      8 C          60.4149   86.1254    8.2658 C.ar    1  UNL1        0.0207
      9 C          59.3954   86.9418    7.5282 C.ar    1  UNL1        0.0989
     10 N          59.2669   88.4103    7.8058 N.ar    1  UNL1       -0.2423
     11 C          60.1580   89.0623    8.8212 C.ar    1  UNL1        0.1004
     12 C          65.0892   92.3944   10.8497 C.3     1  UNL1        0.0265
     13 C          64.3567   91.7082   11.9643 C.3     1  UNL1        0.1077
@<TRIPOS>BOND
     1    12    13    1
     2    13     1    1
     3     1     2   ar
     4     2     3   ar
     5     3     4   ar
     6     4     6    1
     7     6     7   ar
     8     7     8   ar
     9     8     9   ar
    10     9    10   ar
    11    10    11   ar
    12     4     5   ar
    13     5     1   ar
    14    11     6   ar
@<TRIPOS>MOLECULE
*****
 13 14 0 0 0
SMALL
GASTEIGER

@<TRIPOS>ATOM
      1 N          61.8963   87.0928   10.6669 N.ar    1  UNL1       -0.3079
      2 C          62.6928   87.6496   11.8096 C.ar    1  UNL1        0.1785
      3 N          63.1258   86.5034   12.6748 N.ar    1  UNL1       -0.2238
      4 C          62.5970   85.2381   12.0668 C.ar    1  UNL1        0.1017
      5 C          61.8372   85.6024   10.8259 C.ar    1  UNL1        0.0965
      6 C          62.7936   83.8519   12.6054 C.ar    1  UNL1        0.0383
      7 C          62.7423   82.6732   11.6791 C.ar    1  UNL1        0.0047
      8 C          62.9389   81.2871   12.2176 C.ar    1  UNL1        0.0207
      9 C          63.1868   81.0798   13.6824 C.ar    1  UNL1        0.0989
     10 N          63.2381   82.2585   14.6086 N.ar    1  UNL1       -0.2423
     11 C          63.0415   83.6446   14.0701 C.ar    1  UNL1        0.1004
     12 C          61.2555   89.3854    9.6260 C.3     1  UNL1        0.0265
     13 C          61.2692   87.8869    9.5596 C.3     1  UNL1        0.1077
@<TRIPOS>BOND
     1    12    13    1
     2    13     1    1
     3     1     2   ar
     4     2     3   ar
     5     3     4   ar
     6     4     6    1
     7     6     7   ar
     8     7     8   ar
     9     8     9   ar
    10     9    10   ar
    11    10    11   ar
    12     4     5   ar
    13     5     1   ar
    14    11     6   ar
@<TRIPOS>MOLECULE
*****
 13 14 0 0 0
SMALL
GASTEIGER

@<TRIPOS>ATOM
      1 N          63.5400   90.1348   12.3755 N.ar    1  UNL1       -0.3079
      2 C          63.5414   91.1896   11.3089 C.ar    1  UNL1        0.1785
      3 N          62.7710   90.6625   10.1348 N.ar    1  UNL1       -0.2238
      4 C          62.2935   89.2820   10.4757 C.ar    1  UNL1        0.1017
      5 C          62.7687   88.9559   11.8605 C.ar    1  UNL1        0.0965
      6 C          61.4829   88.3850    9.5876 C.ar    1  UNL1        0.0383
      7 C          61.9214   86.9705    9.3492 C.ar    1  UNL1        0.0047
      8 C          61.1108   86.0737    8.4612 C.ar    1  UNL1        0.0207
      9 C          59.8619   86.5914    7.8114 C.ar    1  UNL1        0.0989
     10 N          59.4235   88.0059    8.0497 N.ar    1  UNL1       -0.2423
     11 C          60.2340   88.9027    8.9378 C.ar    1  UNL1        0.1004
     12 C          64.3756   89.0141   14.5654 C.3     1  UNL1        0.0265
     13 C          64.1949   90.2404   13.7209 C.3     1  UNL1        0.1077
@<TRIPOS>BOND
     1    12    13    1
     2    13     1    1
     3     1     2   ar
     4     2     3   ar
     5     3     4   ar
     6     4     6    1
     7     6     7   ar
     8     7     8   ar
     9     8     9   ar
    10     9    10   ar
    11    10    11   ar
    12     4     5   ar
    13     5     1   ar
    14    11     6   ar
@<TRIPOS>MOLECULE
*****
 13 14 0 0 0
SMALL
GASTEIGER

@<TRIPOS>ATOM
      1 N          61.1024   88.0225    9.8766 N.ar    1  UNL1       -0.3079
      2 C          60.2985   88.3040   11.1113 C.ar    1  UNL1        0.1785
      3 N          61.0416   89.3206   11.9264 N.ar    1  UNL1       -0.2238
      4 C          62.3047   89.6674   11.1955 C.ar    1  UNL1        0.1017
      5 C          62.3423   88.8651    9.9286 C.ar    1  UNL1        0.0965
      6 C          63.3472   90.6449   11.6514 C.ar    1  UNL1        0.0383
      7 C          64.0371   91.5259   10.6526 C.ar    1  UNL1        0.0047
      8 C          65.0795   92.5033   11.1085 C.ar    1  UNL1        0.0207
      9 C          65.4321   92.5997   12.5633 C.ar    1  UNL1        0.0989
     10 N          64.7421   91.7187   13.5622 N.ar    1  UNL1       -0.2423
     11 C          63.6997   90.7412   13.1062 C.ar    1  UNL1        0.1004
     12 C          59.3032   86.9512    8.3387 C.3     1  UNL1        0.0265
     13 C          60.7316   87.0663    8.7820 C.3     1  UNL1        0.1077
@<TRIPOS>BOND
     1    12    13    1
     2    13     1    1
     3     1     2   ar
     4     2     3   ar
     5     3     4   ar
     6     4     6    1
     7     6     7   ar
     8     7     8   ar
     9     8     9   ar
    10     9    10   ar
    11    10    11   ar
    12     4     5   ar
    13     5     1   ar
    14    11     6   ar
@<TRIPOS>MOLECULE
*****
 13 14 0 0 0
SMALL
GASTEIGER

@<TRIPOS>ATOM
      1 N          62.8602   90.5440   11.9588 N.ar    1  UNL1       -0.3079
      2 C          63.5107   91.3091   10.8446 C.ar    1  UNL1        0.1785
      3 N          64.7646   91.9334   11.3814 N.ar    1  UNL1       -0.2238
      4 C          64.8889   91.5541   12.8273 C.ar    1  UNL1        0.1017
      5 C          63.7119   90.6954   13.1842 C.ar    1  UNL1        0.0965
      6 C          65.9959   91.9620   13.7538 C.ar    1  UNL1        0.0383
      7 C          65.6990   92.2525   15.1951 C.ar    1  UNL1        0.0047
      8 C          66.8060   92.6603   16.1214 C.ar    1  UNL1        0.0207
      9 C          68.2099   92.7776   15.6065 C.ar    1  UNL1        0.0989
     10 N          68.5069   92.4871   14.1652 N.ar    1  UNL1       -0.2423
     11 C          67.3999   92.0793   13.2388 C.ar    1  UNL1        0.1004
     12 C          60.3910   90.3579   11.1725 C.3     1  UNL1        0.0265
     13 C          61.5822   89.7643   11.8642 C.3     1  UNL1        0.1077
@<TRIPOS>BOND
     1    12    13    1
     2    13     1    1
     3     1     2   ar
     4     2     3   ar
     5     3     4   ar
     6     4     6    1
     7     6     7   ar
     8     7     8   ar
     9     8     9   ar
    10     9    10   ar
    11    10    11   ar
    12     4     5   ar
    13     5     1   ar
    14    11     6   ar
@<TRIPOS>MOLECULE
*****
 13 14 0 0 0
SMALL
GASTEIGER

@<TRIPOS>ATOM
      1 N          61.2492   86.4145    9.3460 N.ar    1  UNL1       -0.3079
      2 C          62.3374   85.6959    8.6048 C.ar    1  UNL1        0.1785
      3 N          63.1036   84.8685    9.5938 N.ar    1  UNL1       -0.2238
      4 C          62.4890   85.0758   10.9464 C.ar    1  UNL1        0.1017
      5 C          61.3429   86.0313   10.7932 C.ar    1  UNL1        0.0965
      6 C          62.9411   84.4392   12.2272 C.ar    1  UNL1        0.0383
      7 C          63.5569   85.2800   13.3060 C.ar    1  UNL1        0.0047
      8 C          64.0090   84.6435   14.5868 C.ar    1  UNL1        0.0207
      9 C          63.8453   83.1661   14.7887 C.ar    1  UNL1        0.0989
     10 N          63.2296   82.3254   13.7099 N.ar    1  UNL1       -0.2423
     11 C          62.7775   82.9619   12.4292 C.ar    1  UNL1        0.1004
     12 C          59.1955   86.8279    7.8093 C.3     1  UNL1        0.0265
     13 C          60.2438   87.3519    8.7455 C.3     1  UNL1        0.1077
@<TRIPOS>BOND
     1    12    13    1
     2    13     1    1
     3     1     2   ar
     4     2     3   ar
     5     3     4   ar
     6     4     6    1
     7     6     7   ar
     8     7     8   ar
     9     8     9   ar
    10     9    10   ar
    11    10    11   ar
    12     4     5   ar
    13     5     1   ar
    14    11     6   ar
