@<TRIPOS>MOLECULE
*****
 39 41 0 0 0
SMALL
GASTEIGER

@<TRIPOS>ATOM
      1 C          62.3911   88.5497   11.6230 C.2     1  UNL1        0.2491
      2 O          62.9476   87.2337   12.0795 O.2     1  UNL1       -0.2699
      3 N          61.0553   88.6038   10.9428 N.am    1  UNL1       -0.2776
      4 C          64.2684   91.5208   13.4665 C.ar    1  UNL1        0.1723
      5 C          63.4891   90.2589   13.2427 C.ar    1  UNL1        0.0446
      6 C          63.1704   89.8118   11.8468 C.ar    1  UNL1        0.0568
      7 C          63.6310   90.6266   10.6747 C.ar    1  UNL1        0.0078
      8 C          64.4103   91.8886   10.8986 C.ar    1  UNL1        0.0402
      9 C          64.7290   92.3357   12.2945 C.ar    1  UNL1        0.1724
     10 O          65.5083   93.5977   12.5182 O.3     1  UNL1       -0.4684
     11 C          66.1664   94.2880   11.3605 C.3     1  UNL1        0.2526
     12 O          64.5871   91.9679   14.8624 O.3     1  UNL1       -0.4723
     13 C          66.0125   92.0186   15.3267 C.3     1  UNL1        0.2082
     14 C          67.0639   91.2259   14.6084 C.3     1  UNL1        0.0794
     15 C          68.1308   91.9317   13.8249 C.3     1  UNL1        0.1461
     16 C          68.9033   93.4986   15.7479 C.3     1  UNL1        0.1741
     17 O          69.2242   92.6677   14.5410 O.3     1  UNL1       -0.3510
     18 C          60.4988   89.9199   10.4864 C.3     1  UNL1        0.0757
     19 C          60.6670   90.3511    9.0596 C.3     1  UNL1        0.0215
     20 C          59.7741   90.8049   11.4569 C.3     1  UNL1        0.0215
     21 C          60.2760   87.3419   10.7190 C.3     1  UNL1        0.0964
     22 C          60.2622   86.6993    9.3637 C.3     1  UNL1        0.0530
     23 C          59.1130   86.6990    8.3997 C.3     1  UNL1        0.0717
     24 N          59.5357   85.9437    7.1747 N.3     1  UNL1       -0.2962
     25 C          60.9462   85.4771    7.3815 C.3     1  UNL1        0.0862
     26 C          61.3951   85.9440    8.7345 C.3     1  UNL1        0.0938
     27 H          59.4891   86.5538    6.3586 H       1  UNL1        0.1233
     28 N          62.7409   85.6988    9.3500 N.3     1  UNL1       -0.1829
     29 H          62.8822   86.4280   10.0491 H       1  UNL1        0.1484
     30 S          63.0300   84.3906   10.0244 S.O2    1  UNL1        0.0450
     31 O          64.0261   84.0585    8.9531 O.2     1  UNL1       -0.1572
     32 O          62.0341   84.7227   11.0957 O.2     1  UNL1       -0.1572
     33 C          63.3192   83.0823   10.6989 C.3     1  UNL1        0.1952
     34 C          63.3314   82.9972   12.1965 C.ar    1  UNL1        0.0029
     35 C          62.3788   82.0791   12.9032 C.ar    1  UNL1       -0.0025
     36 C          62.3909   81.9939   14.4008 C.ar    1  UNL1       -0.0003
     37 C          63.3557   82.8268   15.1915 C.ar    1  UNL1       -0.0000
     38 C          64.3084   83.7450   14.4848 C.ar    1  UNL1       -0.0003
     39 C          64.2962   83.8301   12.9872 C.ar    1  UNL1       -0.0025
@<TRIPOS>BOND
     1    16    17    1
     2    17    15    1
     3    15    14    1
     4    14    13    1
     5    13    12    1
     6    12     4    1
     7     4     5   ar
     8     5     6   ar
     9     6     1    1
    10     1     2    2
    11     1     3   am
    12     3    21    1
    13    22    21    1
    14    22    23    1
    15    23    24    1
    16    24    25    1
    17    25    26    1
    18    26    28    1
    19    28    30    1
    20    30    31    2
    21    30    32    2
    22    30    33    1
    23    33    34    1
    24    34    35   ar
    25    35    36   ar
    26    36    37   ar
    27    37    38   ar
    28    38    39   ar
    29     3    18    1
    30    18    19    1
    31    18    20    1
    32     6     7   ar
    33     7     8   ar
    34     8     9   ar
    35     9    10    1
    36    10    11    1
    37     9     4   ar
    38    26    22    1
    39    39    34   ar
    40    24    27    1
    41    28    29    1
@<TRIPOS>MOLECULE
*****
 39 41 0 0 0
SMALL
GASTEIGER

@<TRIPOS>ATOM
      1 C          62.5056   88.4019   11.9614 C.2     1  UNL1        0.2491
      2 O          63.0136   87.0542   12.3803 O.2     1  UNL1       -0.2699
      3 N          61.2118   88.5158   11.2111 N.am    1  UNL1       -0.2776
      4 C          64.5965   91.7466   11.5236 C.ar    1  UNL1        0.1723
      5 C          63.8107   90.5127   11.1921 C.ar    1  UNL1        0.0446
      6 C          63.2915   89.6359   12.2929 C.ar    1  UNL1        0.0568
      7 C          63.5582   89.9930   13.7251 C.ar    1  UNL1        0.0078
      8 C          64.3441   91.2269   14.0566 C.ar    1  UNL1        0.0402
      9 C          64.8632   92.1037   12.9558 C.ar    1  UNL1        0.1724
     10 O          65.6491   93.3377   13.2873 O.3     1  UNL1       -0.4684
     11 C          66.7675   93.2692   14.2845 C.3     1  UNL1        0.2526
     12 O          65.1157   92.6233   10.4228 O.3     1  UNL1       -0.4723
     13 C          66.5940   92.7794   10.2223 C.3     1  UNL1        0.2082
     14 C          67.1186   93.8528    9.3153 C.3     1  UNL1        0.0794
     15 C          67.1977   95.2707    9.7985 C.3     1  UNL1        0.1461
     16 C          65.7559   96.8556   11.2679 C.3     1  UNL1        0.1741
     17 O          66.6253   95.6406   11.1348 O.3     1  UNL1       -0.3510
     18 C          60.7039   89.8637   10.7922 C.3     1  UNL1        0.0757
     19 C          59.7995   90.6404   11.7025 C.3     1  UNL1        0.0215
     20 C          61.1004   90.4347    9.4630 C.3     1  UNL1        0.0215
     21 C          60.4260   87.2819   10.8796 C.3     1  UNL1        0.0964
     22 C          60.4007   86.7645    9.4719 C.3     1  UNL1        0.0530
     23 C          59.2585   86.8881    8.5074 C.3     1  UNL1        0.0717
     24 N          59.6650   86.2326    7.2209 N.3     1  UNL1       -0.2962
     25 C          61.0585   85.7038    7.3903 C.3     1  UNL1        0.0862
     26 C          61.5131   86.0325    8.7814 C.3     1  UNL1        0.0938
     27 H          59.6434   86.9147    6.4629 H       1  UNL1        0.1233
     28 N          62.8462   85.6895    9.3775 N.3     1  UNL1       -0.1829
     29 H          63.0539   86.4103   10.0686 H       1  UNL1        0.1484
     30 S          63.0460   84.3674   10.0572 S.O2    1  UNL1        0.0450
     31 O          64.1099   84.0155    9.0600 O.2     1  UNL1       -0.1572
     32 O          61.9821   84.7193   11.0544 O.2     1  UNL1       -0.1572
     33 C          63.2458   83.0453   10.7370 C.3     1  UNL1        0.1952
     34 C          63.2748   82.9689   12.2349 C.ar    1  UNL1        0.0029
     35 C          64.2833   83.7667   13.0072 C.ar    1  UNL1       -0.0025
     36 C          64.3123   83.6903   14.5049 C.ar    1  UNL1       -0.0003
     37 C          63.3328   82.8162   15.2304 C.ar    1  UNL1       -0.0000
     38 C          62.3243   82.0183   14.4581 C.ar    1  UNL1       -0.0003
     39 C          62.2953   82.0947   12.9604 C.ar    1  UNL1       -0.0025
@<TRIPOS>BOND
     1    16    17    1
     2    17    15    1
     3    15    14    1
     4    14    13    1
     5    13    12    1
     6    12     4    1
     7     4     5   ar
     8     5     6   ar
     9     6     1    1
    10     1     2    2
    11     1     3   am
    12     3    21    1
    13    22    21    1
    14    22    23    1
    15    23    24    1
    16    24    25    1
    17    25    26    1
    18    26    28    1
    19    28    30    1
    20    30    31    2
    21    30    32    2
    22    30    33    1
    23    33    34    1
    24    34    35   ar
    25    35    36   ar
    26    36    37   ar
    27    37    38   ar
    28    38    39   ar
    29     3    18    1
    30    18    19    1
    31    18    20    1
    32     6     7   ar
    33     7     8   ar
    34     8     9   ar
    35     9    10    1
    36    10    11    1
    37     9     4   ar
    38    26    22    1
    39    39    34   ar
    40    24    27    1
    41    28    29    1
@<TRIPOS>MOLECULE
*****
 39 41 0 0 0
SMALL
GASTEIGER

@<TRIPOS>ATOM
      1 C          62.7520   85.9995   10.9107 C.2     1  UNL1        0.2491
      2 O          63.1343   86.8182   12.1079 O.2     1  UNL1       -0.2699
      3 N          62.2187   86.6727    9.6809 N.am    1  UNL1       -0.2776
      4 C          62.3490   82.2130   12.0287 C.ar    1  UNL1        0.1723
      5 C          62.1980   83.7050   11.9962 C.ar    1  UNL1        0.0446
      6 C          62.9031   84.5074   10.9431 C.ar    1  UNL1        0.0568
      7 C          63.7591   83.8179    9.9226 C.ar    1  UNL1        0.0078
      8 C          63.9101   82.3259    9.9551 C.ar    1  UNL1        0.0402
      9 C          63.2051   81.5234   11.0081 C.ar    1  UNL1        0.1724
     10 O          63.3561   80.0314   11.0406 O.3     1  UNL1       -0.4684
     11 C          62.8764   79.2037    9.8852 C.3     1  UNL1        0.2526
     12 O          61.6439   81.4105   13.0818 O.3     1  UNL1       -0.4723
     13 C          61.7712   81.7928   14.5266 C.3     1  UNL1        0.2082
     14 C          62.8098   82.7887   14.9502 C.3     1  UNL1        0.0794
     15 C          62.3928   84.0899   15.5693 C.3     1  UNL1        0.1461
     16 C          64.5749   85.3020   14.8486 C.3     1  UNL1        0.1741
     17 O          63.1233   85.3534   15.2230 O.3     1  UNL1       -0.3510
     18 C          61.8364   85.8539    8.4836 C.3     1  UNL1        0.0757
     19 C          60.3948   85.7317    8.0879 C.3     1  UNL1        0.0215
     20 C          62.8959   85.1573    7.6821 C.3     1  UNL1        0.0215
     21 C          62.0677   88.1647    9.6484 C.3     1  UNL1        0.0964
     22 C          61.2786   88.8621   10.7166 C.3     1  UNL1        0.0530
     23 C          59.7829   88.9379   10.8004 C.3     1  UNL1        0.0717
     24 N          59.4266   89.7288   12.0241 N.3     1  UNL1       -0.2962
     25 C          60.7021   90.1419   12.6966 C.3     1  UNL1        0.0862
     26 C          61.8467   89.6063   11.8885 C.3     1  UNL1        0.0938
     27 H          58.8713   89.1542   12.6581 H       1  UNL1        0.1233
     28 N          63.3037   89.7837   12.1981 N.3     1  UNL1       -0.1829
     29 H          63.6997   90.3411   11.4412 H       1  UNL1        0.1484
     30 S          63.7237   90.4361   13.4817 S.O2    1  UNL1        0.0450
     31 O          63.7307   89.0979   14.1595 O.2     1  UNL1       -0.1572
     32 O          63.7167   91.7742   12.8041 O.2     1  UNL1       -0.1572
     33 C          64.1438   91.0885   14.7655 C.3     1  UNL1        0.1952
     34 C          65.5344   91.6320   14.9106 C.ar    1  UNL1        0.0029
     35 C          65.9057   92.4273   16.1270 C.ar    1  UNL1       -0.0025
     36 C          67.2962   92.9707   16.2721 C.ar    1  UNL1       -0.0003
     37 C          68.3154   92.7188   15.2009 C.ar    1  UNL1       -0.0000
     38 C          67.9442   91.9235   13.9845 C.ar    1  UNL1       -0.0003
     39 C          66.5537   91.3800   13.8394 C.ar    1  UNL1       -0.0025
@<TRIPOS>BOND
     1    16    17    1
     2    17    15    1
     3    15    14    1
     4    14    13    1
     5    13    12    1
     6    12     4    1
     7     4     5   ar
     8     5     6   ar
     9     6     1    1
    10     1     2    2
    11     1     3   am
    12     3    21    1
    13    22    21    1
    14    22    23    1
    15    23    24    1
    16    24    25    1
    17    25    26    1
    18    26    28    1
    19    28    30    1
    20    30    31    2
    21    30    32    2
    22    30    33    1
    23    33    34    1
    24    34    35   ar
    25    35    36   ar
    26    36    37   ar
    27    37    38   ar
    28    38    39   ar
    29     3    18    1
    30    18    19    1
    31    18    20    1
    32     6     7   ar
    33     7     8   ar
    34     8     9   ar
    35     9    10    1
    36    10    11    1
    37     9     4   ar
    38    26    22    1
    39    39    34   ar
    40    24    27    1
    41    28    29    1
@<TRIPOS>MOLECULE
*****
 39 41 0 0 0
SMALL
GASTEIGER

@<TRIPOS>ATOM
      1 C          63.1497   85.9841   12.0330 C.2     1  UNL1        0.2491
      2 O          63.2714   87.3655   12.6047 O.2     1  UNL1       -0.2699
      3 N          63.6327   84.8017   12.8195 N.am    1  UNL1       -0.2776
      4 C          60.5810   86.1431    9.0119 C.ar    1  UNL1        0.1723
      5 C          61.1859   86.3422   10.3701 C.ar    1  UNL1        0.0446
      6 C          62.5448   85.7851   10.6748 C.ar    1  UNL1        0.0568
      7 C          63.2989   85.0290    9.6215 C.ar    1  UNL1        0.0078
      8 C          62.6941   84.8299    8.2634 C.ar    1  UNL1        0.0402
      9 C          61.3351   85.3870    7.9586 C.ar    1  UNL1        0.1724
     10 O          60.7302   85.1880    6.6004 O.3     1  UNL1       -0.4684
     11 C          61.3514   84.2202    5.6373 C.3     1  UNL1        0.2526
     12 O          59.2220   86.7002    8.7072 O.3     1  UNL1       -0.4723
     13 C          59.0190   87.5622    7.4965 C.3     1  UNL1        0.2082
     14 C          59.5508   88.9646    7.4766 C.3     1  UNL1        0.0794
     15 C          59.5133   89.7630    6.2072 C.3     1  UNL1        0.1461
     16 C          58.3352   91.6562    4.8738 C.3     1  UNL1        0.1741
     17 O          58.2617   90.4914    5.8161 O.3     1  UNL1       -0.3510
     18 C          63.5110   83.4202   12.2477 C.3     1  UNL1        0.0757
     19 C          64.6238   82.8509   11.4186 C.3     1  UNL1        0.0215
     20 C          62.2764   82.6082   12.5052 C.3     1  UNL1        0.0215
     21 C          64.2376   85.0007   14.1776 C.3     1  UNL1        0.0964
     22 C          63.3923   85.5082   15.3080 C.3     1  UNL1        0.0530
     23 C          62.2987   84.7502   16.0005 C.3     1  UNL1        0.0717
     24 N          61.7226   85.6363   17.0649 N.3     1  UNL1       -0.2962
     25 C          62.4602   86.9420   17.0303 C.3     1  UNL1        0.0862
     26 C          63.4921   86.8628   15.9445 C.3     1  UNL1        0.0938
     27 H          61.8368   85.1984   17.9791 H       1  UNL1        0.1233
     28 N          64.4548   87.9477   15.5623 N.3     1  UNL1       -0.1829
     29 H          65.0597   87.5626   14.8369 H       1  UNL1        0.1484
     30 S          63.9408   89.2589   15.0462 S.O2    1  UNL1        0.0450
     31 O          62.6654   89.0598   15.8103 O.2     1  UNL1       -0.1572
     32 O          65.2161   89.4582   14.2820 O.2     1  UNL1       -0.1572
     33 C          63.4267   90.5703   14.5300 C.3     1  UNL1        0.1952
     34 C          63.4496   90.8577   13.0579 C.ar    1  UNL1        0.0029
     35 C          64.5201   91.7364   12.4819 C.ar    1  UNL1       -0.0025
     36 C          64.5429   92.0238   11.0099 C.ar    1  UNL1       -0.0003
     37 C          63.4952   91.4326   10.1139 C.ar    1  UNL1       -0.0000
     38 C          62.4247   90.5538   10.6900 C.ar    1  UNL1       -0.0003
     39 C          62.4019   90.2664   12.1620 C.ar    1  UNL1       -0.0025
@<TRIPOS>BOND
     1    16    17    1
     2    17    15    1
     3    15    14    1
     4    14    13    1
     5    13    12    1
     6    12     4    1
     7     4     5   ar
     8     5     6   ar
     9     6     1    1
    10     1     2    2
    11     1     3   am
    12     3    21    1
    13    22    21    1
    14    22    23    1
    15    23    24    1
    16    24    25    1
    17    25    26    1
    18    26    28    1
    19    28    30    1
    20    30    31    2
    21    30    32    2
    22    30    33    1
    23    33    34    1
    24    34    35   ar
    25    35    36   ar
    26    36    37   ar
    27    37    38   ar
    28    38    39   ar
    29     3    18    1
    30    18    19    1
    31    18    20    1
    32     6     7   ar
    33     7     8   ar
    34     8     9   ar
    35     9    10    1
    36    10    11    1
    37     9     4   ar
    38    26    22    1
    39    39    34   ar
    40    24    27    1
    41    28    29    1
@<TRIPOS>MOLECULE
*****
 39 41 0 0 0
SMALL
GASTEIGER

@<TRIPOS>ATOM
      1 C          62.2131   89.7898   10.2587 C.2     1  UNL1        0.2491
      2 O          63.0448   89.5058    9.0432 O.2     1  UNL1       -0.2699
      3 N          60.7163   89.7456   10.1705 N.am    1  UNL1       -0.2776
      4 C          64.3917   91.6771   12.9867 C.ar    1  UNL1        0.1723
      5 C          63.7267   91.3490   11.6829 C.ar    1  UNL1        0.0446
      6 C          62.8782   90.1179   11.5626 C.ar    1  UNL1        0.0568
      7 C          62.6948   89.2149   12.7462 C.ar    1  UNL1        0.0078
      8 C          63.3599   89.5430   14.0500 C.ar    1  UNL1        0.0402
      9 C          64.2083   90.7742   14.1703 C.ar    1  UNL1        0.1724
     10 O          64.8734   91.1023   15.4742 O.3     1  UNL1       -0.4684
     11 C          64.1041   91.8066   16.5521 C.3     1  UNL1        0.2526
     12 O          65.2402   92.9083   13.1069 O.3     1  UNL1       -0.4723
     13 C          66.2913   93.1982   12.0769 C.3     1  UNL1        0.2082
     14 C          66.0750   94.2899   11.0712 C.3     1  UNL1        0.0794
     15 C          66.8762   94.3111    9.8032 C.3     1  UNL1        0.1461
     16 C          68.6721   92.4975    9.3184 C.3     1  UNL1        0.1741
     17 O          68.3085   93.8658    9.8135 O.3     1  UNL1       -0.3510
     18 C          59.8847   90.0296   11.3862 C.3     1  UNL1        0.0757
     19 C          59.4239   91.4287   11.6696 C.3     1  UNL1        0.0215
     20 C          59.5138   88.9145   12.3184 C.3     1  UNL1        0.0215
     21 C          60.0513   89.4175    8.8667 C.3     1  UNL1        0.0964
     22 C          59.9169   87.9882    8.4321 C.3     1  UNL1        0.0530
     23 C          58.9152   87.4554    7.4509 C.3     1  UNL1        0.0717
     24 N          59.1398   85.9786    7.3147 N.3     1  UNL1       -0.2962
     25 C          60.2804   85.5986    8.2117 C.3     1  UNL1        0.0862
     26 C          60.7607   86.8406    8.9023 C.3     1  UNL1        0.0938
     27 H          59.3697   85.7512    6.3473 H       1  UNL1        0.1233
     28 N          61.8870   86.9209    9.8897 N.3     1  UNL1       -0.1829
     29 H          61.6825   87.7074   10.5062 H       1  UNL1        0.1484
     30 S          62.1959   85.7480   10.7721 S.O2    1  UNL1        0.0450
     31 O          63.1678   85.2357    9.7507 O.2     1  UNL1       -0.1572
     32 O          61.2240   86.2602   11.7934 O.2     1  UNL1       -0.1572
     33 C          62.5049   84.5749   11.6545 C.3     1  UNL1        0.1952
     34 C          62.9087   84.7962   13.0821 C.ar    1  UNL1        0.0029
     35 C          63.9266   85.8450   13.4197 C.ar    1  UNL1       -0.0025
     36 C          64.3304   86.0662   14.8473 C.ar    1  UNL1       -0.0003
     37 C          63.7164   85.2387   15.9372 C.ar    1  UNL1       -0.0000
     38 C          62.6985   84.1899   15.5997 C.ar    1  UNL1       -0.0003
     39 C          62.2947   83.9686   14.1721 C.ar    1  UNL1       -0.0025
@<TRIPOS>BOND
     1    16    17    1
     2    17    15    1
     3    15    14    1
     4    14    13    1
     5    13    12    1
     6    12     4    1
     7     4     5   ar
     8     5     6   ar
     9     6     1    1
    10     1     2    2
    11     1     3   am
    12     3    21    1
    13    22    21    1
    14    22    23    1
    15    23    24    1
    16    24    25    1
    17    25    26    1
    18    26    28    1
    19    28    30    1
    20    30    31    2
    21    30    32    2
    22    30    33    1
    23    33    34    1
    24    34    35   ar
    25    35    36   ar
    26    36    37   ar
    27    37    38   ar
    28    38    39   ar
    29     3    18    1
    30    18    19    1
    31    18    20    1
    32     6     7   ar
    33     7     8   ar
    34     8     9   ar
    35     9    10    1
    36    10    11    1
    37     9     4   ar
    38    26    22    1
    39    39    34   ar
    40    24    27    1
    41    28    29    1
@<TRIPOS>MOLECULE
*****
 39 41 0 0 0
SMALL
GASTEIGER

@<TRIPOS>ATOM
      1 C          63.0343   86.0281   11.8385 C.2     1  UNL1        0.2491
      2 O          63.0566   87.4181   12.4017 O.2     1  UNL1       -0.2699
      3 N          63.5636   84.8820   12.6487 N.am    1  UNL1       -0.2776
      4 C          60.5661   86.0466    8.7309 C.ar    1  UNL1        0.1723
      5 C          61.1177   86.2906   10.1042 C.ar    1  UNL1        0.0446
      6 C          62.4827   85.7840   10.4651 C.ar    1  UNL1        0.0568
      7 C          63.2960   85.0334    9.4527 C.ar    1  UNL1        0.0078
      8 C          62.7443   84.7894    8.0793 C.ar    1  UNL1        0.0402
      9 C          61.3794   85.2960    7.7184 C.ar    1  UNL1        0.1724
     10 O          60.8277   85.0520    6.3450 O.3     1  UNL1       -0.4684
     11 C          61.6029   84.2266    5.3612 C.3     1  UNL1        0.2526
     12 O          59.2011   86.5532    8.3700 O.3     1  UNL1       -0.4723
     13 C          59.0572   87.7603    7.4912 C.3     1  UNL1        0.2082
     14 C          59.8152   89.0148    7.8102 C.3     1  UNL1        0.0794
     15 C          59.9322   89.4795    9.2316 C.3     1  UNL1        0.1461
     16 C          61.3936   90.3076   11.2136 C.3     1  UNL1        0.1741
     17 O          61.2811   89.7852    9.8121 O.3     1  UNL1       -0.3510
     18 C          63.5413   83.4919   12.0854 C.3     1  UNL1        0.0757
     19 C          64.7090   82.9855   11.2918 C.3     1  UNL1        0.0215
     20 C          62.3513   82.6084   12.3159 C.3     1  UNL1        0.0215
     21 C          64.1152   85.1260   14.0220 C.3     1  UNL1        0.0964
     22 C          63.1888   85.4558   15.1547 C.3     1  UNL1        0.0530
     23 C          62.0181   84.6329   15.6043 C.3     1  UNL1        0.0717
     24 N          61.3761   85.3349   16.7642 N.3     1  UNL1       -0.2962
     25 C          62.1502   86.5916   17.0314 C.3     1  UNL1        0.0862
     26 C          63.2705   86.6663   16.0367 C.3     1  UNL1        0.0938
     27 H          61.3975   84.7334   17.5877 H       1  UNL1        0.1233
     28 N          64.2929   87.7597   15.9408 N.3     1  UNL1       -0.1829
     29 H          65.0859   87.3769   15.4260 H       1  UNL1        0.1484
     30 S          63.9393   89.0619   15.2858 S.O2    1  UNL1        0.0450
     31 O          63.3349   89.5443   16.5712 O.2     1  UNL1       -0.1572
     32 O          64.5437   88.5796   14.0005 O.2     1  UNL1       -0.1572
     33 C          63.5857   90.3642   14.6308 C.3     1  UNL1        0.1952
     34 C          64.6344   91.1407   13.8908 C.ar    1  UNL1        0.0029
     35 C          65.9551   91.4264   14.5420 C.ar    1  UNL1       -0.0025
     36 C          67.0038   92.2028   13.8021 C.ar    1  UNL1       -0.0003
     37 C          66.7318   92.6934   12.4111 C.ar    1  UNL1       -0.0000
     38 C          65.4111   92.4077   11.7598 C.ar    1  UNL1       -0.0003
     39 C          64.3624   91.6313   12.4997 C.ar    1  UNL1       -0.0025
@<TRIPOS>BOND
     1    16    17    1
     2    17    15    1
     3    15    14    1
     4    14    13    1
     5    13    12    1
     6    12     4    1
     7     4     5   ar
     8     5     6   ar
     9     6     1    1
    10     1     2    2
    11     1     3   am
    12     3    21    1
    13    22    21    1
    14    22    23    1
    15    23    24    1
    16    24    25    1
    17    25    26    1
    18    26    28    1
    19    28    30    1
    20    30    31    2
    21    30    32    2
    22    30    33    1
    23    33    34    1
    24    34    35   ar
    25    35    36   ar
    26    36    37   ar
    27    37    38   ar
    28    38    39   ar
    29     3    18    1
    30    18    19    1
    31    18    20    1
    32     6     7   ar
    33     7     8   ar
    34     8     9   ar
    35     9    10    1
    36    10    11    1
    37     9     4   ar
    38    26    22    1
    39    39    34   ar
    40    24    27    1
    41    28    29    1
@<TRIPOS>MOLECULE
*****
 39 41 0 0 0
SMALL
GASTEIGER

@<TRIPOS>ATOM
      1 C          62.2526   89.7206   10.2827 C.2     1  UNL1        0.2491
      2 O          63.0946   89.4238    9.0773 O.2     1  UNL1       -0.2699
      3 N          60.7565   89.7037   10.1751 N.am    1  UNL1       -0.2776
      4 C          64.3092   91.6359   13.0848 C.ar    1  UNL1        0.1723
      5 C          63.6551   91.3222   11.7719 C.ar    1  UNL1        0.0446
      6 C          62.9066   90.0343   11.5957 C.ar    1  UNL1        0.0568
      7 C          62.8122   89.0601   12.7323 C.ar    1  UNL1        0.0078
      8 C          63.4662   89.3738   14.0452 C.ar    1  UNL1        0.0402
      9 C          64.2147   90.6617   14.2215 C.ar    1  UNL1        0.1724
     10 O          64.8688   90.9754   15.5345 O.3     1  UNL1       -0.4684
     11 C          64.1759   91.8646   16.5240 C.3     1  UNL1        0.2526
     12 O          65.0577   92.9238   13.2611 O.3     1  UNL1       -0.4723
     13 C          66.3824   93.1199   12.5854 C.3     1  UNL1        0.2082
     14 C          67.4769   92.1116   12.7736 C.3     1  UNL1        0.0794
     15 C          68.0382   91.8605   14.1418 C.3     1  UNL1        0.1461
     16 C          68.7325   93.7441   15.7910 C.3     1  UNL1        0.1741
     17 O          69.0866   92.7754   14.7018 O.3     1  UNL1       -0.3510
     18 C          59.9146   90.0006   11.3806 C.3     1  UNL1        0.0757
     19 C          59.4549   91.4032   11.6475 C.3     1  UNL1        0.0215
     20 C          59.5322   88.8947   12.3191 C.3     1  UNL1        0.0215
     21 C          60.1025   89.3901    8.8622 C.3     1  UNL1        0.0964
     22 C          59.9557   87.9646    8.4190 C.3     1  UNL1        0.0530
     23 C          58.9555   87.4479    7.4278 C.3     1  UNL1        0.0717
     24 N          59.1650   85.9695    7.2854 N.3     1  UNL1       -0.2962
     25 C          60.2948   85.5724    8.1886 C.3     1  UNL1        0.0862
     26 C          60.7835   86.8054    8.8892 C.3     1  UNL1        0.0938
     27 H          59.3994   85.7447    6.3185 H       1  UNL1        0.1233
     28 N          61.9034   86.8682    9.8852 N.3     1  UNL1       -0.1829
     29 H          61.7027   87.6532   10.5048 H       1  UNL1        0.1484
     30 S          62.1936   85.6870   10.7629 S.O2    1  UNL1        0.0450
     31 O          61.2419   86.2188   11.7932 O.2     1  UNL1       -0.1572
     32 O          63.1453   85.1552    9.7327 O.2     1  UNL1       -0.1572
     33 C          62.4839   84.5058   11.6407 C.3     1  UNL1        0.1952
     34 C          62.9078   84.7154   13.0643 C.ar    1  UNL1        0.0029
     35 C          62.2644   83.9224   14.1630 C.ar    1  UNL1       -0.0025
     36 C          62.6883   84.1321   15.5865 C.ar    1  UNL1       -0.0003
     37 C          63.7556   85.1347   15.9113 C.ar    1  UNL1       -0.0000
     38 C          64.3991   85.9278   14.8126 C.ar    1  UNL1       -0.0003
     39 C          63.9751   85.7181   13.3891 C.ar    1  UNL1       -0.0025
@<TRIPOS>BOND
     1    16    17    1
     2    17    15    1
     3    15    14    1
     4    14    13    1
     5    13    12    1
     6    12     4    1
     7     4     5   ar
     8     5     6   ar
     9     6     1    1
    10     1     2    2
    11     1     3   am
    12     3    21    1
    13    22    21    1
    14    22    23    1
    15    23    24    1
    16    24    25    1
    17    25    26    1
    18    26    28    1
    19    28    30    1
    20    30    31    2
    21    30    32    2
    22    30    33    1
    23    33    34    1
    24    34    35   ar
    25    35    36   ar
    26    36    37   ar
    27    37    38   ar
    28    38    39   ar
    29     3    18    1
    30    18    19    1
    31    18    20    1
    32     6     7   ar
    33     7     8   ar
    34     8     9   ar
    35     9    10    1
    36    10    11    1
    37     9     4   ar
    38    26    22    1
    39    39    34   ar
    40    24    27    1
    41    28    29    1
@<TRIPOS>MOLECULE
*****
 39 41 0 0 0
SMALL
GASTEIGER

@<TRIPOS>ATOM
      1 C          64.5675   85.8315   14.9664 C.2     1  UNL1        0.2491
      2 O          65.7970   85.4411   14.2009 O.2     1  UNL1       -0.2699
      3 N          63.6474   84.7729   15.4981 N.am    1  UNL1       -0.2776
      4 C          64.2904   89.7478   14.3868 C.ar    1  UNL1        0.1723
      5 C          64.5998   88.2988   14.1530 C.ar    1  UNL1        0.0446
      6 C          64.2581   87.2806   15.2001 C.ar    1  UNL1        0.0568
      7 C          63.6071   87.7113   16.4810 C.ar    1  UNL1        0.0078
      8 C          63.2977   89.1603   16.7147 C.ar    1  UNL1        0.0402
      9 C          63.6394   90.1785   15.6676 C.ar    1  UNL1        0.1724
     10 O          63.3300   91.6276   15.9014 O.3     1  UNL1       -0.4684
     11 C          64.2864   92.4828   16.6784 C.3     1  UNL1        0.2526
     12 O          64.6320   90.7661   13.3396 O.3     1  UNL1       -0.4723
     13 C          65.8584   91.6162   13.4921 C.3     1  UNL1        0.2082
     14 C          66.0498   92.8202   12.6181 C.3     1  UNL1        0.0794
     15 C          66.5089   92.6522   11.2000 C.3     1  UNL1        0.1461
     16 C          68.4379   92.3404    9.4878 C.3     1  UNL1        0.1741
     17 O          67.9543   92.3783   10.9071 O.3     1  UNL1       -0.3510
     18 C          62.4179   85.1633   16.2637 C.3     1  UNL1        0.0757
     19 C          61.0717   85.0960   15.6055 C.3     1  UNL1        0.0215
     20 C          62.5347   85.6211   17.6873 C.3     1  UNL1        0.0215
     21 C          63.9568   83.3239   15.2644 C.3     1  UNL1        0.0964
     22 C          63.2276   82.5641   14.1962 C.3     1  UNL1        0.0530
     23 C          62.6046   81.2081   14.3478 C.3     1  UNL1        0.0717
     24 N          61.9854   80.8329   13.0341 N.3     1  UNL1       -0.2962
     25 C          62.2256   81.9571   12.0706 C.3     1  UNL1        0.0862
     26 C          62.9934   83.0270   12.7887 C.3     1  UNL1        0.0938
     27 H          60.9828   80.6872   13.1531 H       1  UNL1        0.1233
     28 N          63.4472   84.3310   12.2024 N.3     1  UNL1       -0.1829
     29 H          64.2787   84.1304   11.6468 H       1  UNL1        0.1484
     30 S          62.5216   85.1220   11.3264 S.O2    1  UNL1        0.0450
     31 O          61.8179   85.6459   12.5432 O.2     1  UNL1       -0.1572
     32 O          63.2253   84.5982   10.1097 O.2     1  UNL1       -0.1572
     33 C          61.5959   85.9132   10.4504 C.3     1  UNL1        0.1952
     34 C          61.4571   87.3934   10.6497 C.ar    1  UNL1        0.0029
     35 C          60.1060   87.9921   10.9067 C.ar    1  UNL1       -0.0025
     36 C          59.9672   89.4723   11.1060 C.ar    1  UNL1       -0.0003
     37 C          61.1794   90.3538   11.0484 C.ar    1  UNL1       -0.0000
     38 C          62.5306   89.7551   10.7914 C.ar    1  UNL1       -0.0003
     39 C          62.6694   88.2749   10.5921 C.ar    1  UNL1       -0.0025
@<TRIPOS>BOND
     1    16    17    1
     2    17    15    1
     3    15    14    1
     4    14    13    1
     5    13    12    1
     6    12     4    1
     7     4     5   ar
     8     5     6   ar
     9     6     1    1
    10     1     2    2
    11     1     3   am
    12     3    21    1
    13    22    21    1
    14    22    23    1
    15    23    24    1
    16    24    25    1
    17    25    26    1
    18    26    28    1
    19    28    30    1
    20    30    31    2
    21    30    32    2
    22    30    33    1
    23    33    34    1
    24    34    35   ar
    25    35    36   ar
    26    36    37   ar
    27    37    38   ar
    28    38    39   ar
    29     3    18    1
    30    18    19    1
    31    18    20    1
    32     6     7   ar
    33     7     8   ar
    34     8     9   ar
    35     9    10    1
    36    10    11    1
    37     9     4   ar
    38    26    22    1
    39    39    34   ar
    40    24    27    1
    41    28    29    1
@<TRIPOS>MOLECULE
*****
 39 41 0 0 0
SMALL
GASTEIGER

@<TRIPOS>ATOM
      1 C          62.0780   89.2762   10.3712 C.2     1  UNL1        0.2491
      2 O          62.8286   88.7646    9.1776 O.2     1  UNL1       -0.2699
      3 N          60.5796   89.3405   10.3438 N.am    1  UNL1       -0.2776
      4 C          63.8460   89.1995   13.9234 C.ar    1  UNL1        0.1723
      5 C          63.0984   88.7522   12.7024 C.ar    1  UNL1        0.0446
      6 C          62.8257   89.7235   11.5923 C.ar    1  UNL1        0.0568
      7 C          63.3006   91.1419   11.7032 C.ar    1  UNL1        0.0078
      8 C          64.0483   91.5891   12.9242 C.ar    1  UNL1        0.0402
      9 C          64.3210   90.6179   14.0343 C.ar    1  UNL1        0.1724
     10 O          65.0687   91.0652   15.2554 O.3     1  UNL1       -0.4684
     11 C          66.4037   91.7344   15.1142 C.3     1  UNL1        0.2526
     12 O          64.1188   88.2282   15.0335 O.3     1  UNL1       -0.4723
     13 C          64.2289   86.7620   14.7371 C.3     1  UNL1        0.2082
     14 C          64.0999   85.7607   15.8465 C.3     1  UNL1        0.0794
     15 C          62.7480   85.2358   16.2297 C.3     1  UNL1        0.1461
     16 C          62.6779   86.8823   18.2381 C.3     1  UNL1        0.1741
     17 O          62.0392   85.7931   17.4284 O.3     1  UNL1       -0.3510
     18 C          59.8289   89.8521   11.5375 C.3     1  UNL1        0.0757
     19 C          59.3931   91.2864   11.5911 C.3     1  UNL1        0.0215
     20 C          59.5142   88.9294   12.6775 C.3     1  UNL1        0.0215
     21 C          59.8319   88.8932    9.1228 C.3     1  UNL1        0.0964
     22 C          60.0225   87.5025    8.5942 C.3     1  UNL1        0.0530
     23 C          59.6251   87.0147    7.2325 C.3     1  UNL1        0.0717
     24 N          60.0010   85.5660    7.1311 N.3     1  UNL1       -0.2962
     25 C          60.6306   85.1585    8.4302 C.3     1  UNL1        0.0862
     26 C          60.6439   86.3553    9.3343 C.3     1  UNL1        0.0938
     27 H          60.6647   85.4332    6.3681 H       1  UNL1        0.1233
     28 N          61.1839   86.3975   10.7332 N.3     1  UNL1       -0.1829
     29 H          60.3999   86.2073   11.3573 H       1  UNL1        0.1484
     30 S          62.2932   85.4724   11.1371 S.O2    1  UNL1        0.0450
     31 O          62.7932   85.4543    9.7230 O.2     1  UNL1       -0.1572
     32 O          61.7934   85.4903   12.5513 O.2     1  UNL1       -0.1572
     33 C          63.4027   84.5471   11.5412 C.3     1  UNL1        0.1952
     34 C          63.0851   83.1701   12.0445 C.ar    1  UNL1        0.0029
     35 C          62.7382   82.9610   13.4888 C.ar    1  UNL1       -0.0025
     36 C          62.4206   81.5841   13.9920 C.ar    1  UNL1       -0.0003
     37 C          62.4499   80.4164   13.0511 C.ar    1  UNL1       -0.0000
     38 C          62.7968   80.6255   11.6068 C.ar    1  UNL1       -0.0003
     39 C          63.1143   82.0024   11.1035 C.ar    1  UNL1       -0.0025
@<TRIPOS>BOND
     1    16    17    1
     2    17    15    1
     3    15    14    1
     4    14    13    1
     5    13    12    1
     6    12     4    1
     7     4     5   ar
     8     5     6   ar
     9     6     1    1
    10     1     2    2
    11     1     3   am
    12     3    21    1
    13    22    21    1
    14    22    23    1
    15    23    24    1
    16    24    25    1
    17    25    26    1
    18    26    28    1
    19    28    30    1
    20    30    31    2
    21    30    32    2
    22    30    33    1
    23    33    34    1
    24    34    35   ar
    25    35    36   ar
    26    36    37   ar
    27    37    38   ar
    28    38    39   ar
    29     3    18    1
    30    18    19    1
    31    18    20    1
    32     6     7   ar
    33     7     8   ar
    34     8     9   ar
    35     9    10    1
    36    10    11    1
    37     9     4   ar
    38    26    22    1
    39    39    34   ar
    40    24    27    1
    41    28    29    1
