@<TRIPOS>MOLECULE
*****
 34 36 0 0 0
SMALL
GASTEIGER

@<TRIPOS>ATOM
      1 C          64.3013   88.9041   13.9189 C.ar    1  UNL1        0.0617
      2 C          64.7315   87.9017   14.9486 C.ar    1  UNL1        0.0461
      3 C          64.3832   86.4529   14.7762 C.ar    1  UNL1        0.1568
      4 F          64.8134   85.4505   15.8060 F       1  UNL1       -0.2027
      5 C          63.6049   86.0065   13.5742 C.ar    1  UNL1        0.1036
      6 C          63.1748   87.0088   12.5445 C.ar    1  UNL1        0.1568
      7 F          62.3965   86.5623   11.3425 F       1  UNL1       -0.2027
      8 C          63.5230   88.4576   12.7168 C.ar    1  UNL1        0.0461
      9 N          63.2567   84.5576   13.4020 N.pl3   1  UNL1       -0.3008
     10 C          62.6123   83.8981   14.5852 C.3     1  UNL1        0.1097
     11 C          62.1510   82.4779   14.7279 C.3     1  UNL1        0.1092
     12 N          62.2202   81.3666   13.7229 N.3     1  UNL1       -0.2249
     13 N          62.7677   81.4009   12.3268 N.am    1  UNL1       -0.2207
     14 C          62.6915   80.1105   11.5659 C.2     1  UNL1        0.2686
     15 O          62.0954   78.8941   12.2101 O.2     1  UNL1       -0.2709
     16 C          63.3813   82.5550   11.5910 C.3     1  UNL1        0.1327
     17 C          63.5989   83.9599   12.0695 C.3     1  UNL1        0.1141
     18 H          61.2529   81.0631   13.6106 H       1  UNL1        0.1453
     19 C          63.2115   80.0364   10.1609 C.3     1  UNL1        0.2245
     20 O          62.7870   78.9128    9.2623 O.3     1  UNL1       -0.3736
     21 H          63.1322   78.0746    9.6075 H       1  UNL1        0.2111
     22 C          65.5227   92.5810   13.6865 C.3     1  UNL1        0.2101
     23 C          65.4000   91.2022   13.1085 C.3     1  UNL1        0.1468
     24 N          64.6495   90.3529   14.0912 N.am    1  UNL1       -0.2211
     25 C          64.3084   91.2067   15.2763 C.2     1  UNL1        0.4088
     26 O          63.5592   90.7617   16.4972 O.2     1  UNL1       -0.2258
     27 O          64.8481   92.5838   15.0261 O.3     1  UNL1       -0.4345
     28 C          66.2010   93.7514   13.0384 C.3     1  UNL1        0.1358
     29 N          65.7634   94.2142   11.6803 N.am    1  UNL1       -0.2954
     30 H          64.9943   93.7867   11.2387 H       1  UNL1        0.1502
     31 C          66.4976   95.3284   10.9950 C.2     1  UNL1        0.2296
     32 S          66.0894   96.7523   11.2312 S.2     1  UNL1        0.0058
     33 C          67.6940   93.6983    9.3637 C.3     1  UNL1        0.2545
     34 O          67.6399   95.0186   10.0737 O.3     1  UNL1       -0.4543
@<TRIPOS>BOND
     1    33    34    1
     2    34    31    1
     3    31    32    2
     4    31    29    1
     5    29    28    1
     6    22    28    1
     7    22    23    1
     8    23    24    1
     9    24     1    1
    10     1     2   ar
    11     2     3   ar
    12     3     4    1
    13     3     5   ar
    14     5     9    1
    15     9    10    1
    16    10    11    1
    17    11    12    1
    18    12    13    1
    19    13    14   am
    20    14    15    2
    21    14    19    1
    22    19    20    1
    23    13    16    1
    24    16    17    1
    25     5     6   ar
    26     6     7    1
    27     6     8   ar
    28    24    25   am
    29    25    26    2
    30    25    27    1
    31    27    22    1
    32     8     1   ar
    33    17     9    1
    34    29    30    1
    35    12    18    1
    36    20    21    1
@<TRIPOS>MOLECULE
*****
 34 36 0 0 0
SMALL
GASTEIGER

@<TRIPOS>ATOM
      1 C          64.3021   88.9018   13.9364 C.ar    1  UNL1        0.0617
      2 C          63.5179   88.4647   12.7346 C.ar    1  UNL1        0.0461
      3 C          63.1711   87.0169   12.5515 C.ar    1  UNL1        0.1568
      4 F          62.3870   86.5798   11.3497 F       1  UNL1       -0.2027
      5 C          63.6083   86.0062   13.5700 C.ar    1  UNL1        0.1036
      6 C          64.3924   86.4433   14.7717 C.ar    1  UNL1        0.1568
      7 F          64.8296   85.4326   15.7902 F       1  UNL1       -0.2027
      8 C          64.7393   87.8911   14.9549 C.ar    1  UNL1        0.0461
      9 N          63.2614   84.5584   13.3867 N.pl3   1  UNL1       -0.3008
     10 C          62.6190   83.8889   14.5654 C.3     1  UNL1        0.1097
     11 C          62.1593   82.4672   14.6975 C.3     1  UNL1        0.1092
     12 N          62.2284   81.3640   13.6837 N.3     1  UNL1       -0.2249
     13 N          62.7743   81.4098   12.2873 N.am    1  UNL1       -0.2207
     14 C          62.6986   80.1253   11.5164 C.2     1  UNL1        0.2686
     15 O          62.1044   78.9033   12.1516 O.2     1  UNL1       -0.2709
     16 C          63.3859   82.5703   11.5599 C.3     1  UNL1        0.1327
     17 C          63.6027   83.9716   12.0492 C.3     1  UNL1        0.1141
     18 H          61.2613   81.0604   13.5701 H       1  UNL1        0.1453
     19 C          63.2171   80.0629   10.1102 C.3     1  UNL1        0.2245
     20 O          62.8908   78.8837    9.2422 O.3     1  UNL1       -0.3736
     21 H          63.3110   78.0886    9.6056 H       1  UNL1        0.2111
     22 C          65.5089   92.5848   13.7262 C.3     1  UNL1        0.2101
     23 C          65.3806   91.2124   13.1345 C.3     1  UNL1        0.1468
     24 N          64.6489   90.3496   14.1196 N.am    1  UNL1       -0.2211
     25 C          64.3251   91.1887   15.3200 C.2     1  UNL1        0.4088
     26 O          63.5976   90.7274   16.5479 O.2     1  UNL1       -0.2258
     27 O          64.8566   92.5702   15.0768 O.3     1  UNL1       -0.4345
     28 C          66.1729   93.7647   13.0805 C.3     1  UNL1        0.1358
     29 N          65.7979   94.1653   11.6844 N.am    1  UNL1       -0.2954
     30 H          65.0908   93.6759   11.2050 H       1  UNL1        0.1502
     31 C          66.5002   95.3115   11.0188 C.2     1  UNL1        0.2296
     32 S          66.0883   96.7215   11.3221 S.2     1  UNL1        0.0058
     33 C          67.7331   93.7051    9.3911 C.3     1  UNL1        0.2545
     34 O          67.6143   95.0475   10.0498 O.3     1  UNL1       -0.4543
@<TRIPOS>BOND
     1    33    34    1
     2    34    31    1
     3    31    32    2
     4    31    29    1
     5    29    28    1
     6    22    28    1
     7    22    23    1
     8    23    24    1
     9    24     1    1
    10     1     2   ar
    11     2     3   ar
    12     3     4    1
    13     3     5   ar
    14     5     9    1
    15     9    10    1
    16    10    11    1
    17    11    12    1
    18    12    13    1
    19    13    14   am
    20    14    15    2
    21    14    19    1
    22    19    20    1
    23    13    16    1
    24    16    17    1
    25     5     6   ar
    26     6     7    1
    27     6     8   ar
    28    24    25   am
    29    25    26    2
    30    25    27    1
    31    27    22    1
    32     8     1   ar
    33    17     9    1
    34    29    30    1
    35    12    18    1
    36    20    21    1
@<TRIPOS>MOLECULE
*****
 34 36 0 0 0
SMALL
GASTEIGER

@<TRIPOS>ATOM
      1 C          64.4020   88.8671   14.3150 C.ar    1  UNL1        0.0617
      2 C          63.6985   88.5352   13.0324 C.ar    1  UNL1        0.0461
      3 C          63.4036   87.1056   12.6870 C.ar    1  UNL1        0.1568
      4 F          62.7000   86.7737   11.4044 F       1  UNL1       -0.2027
      5 C          63.8121   86.0080   13.6241 C.ar    1  UNL1        0.1036
      6 C          64.5156   86.3398   14.9067 C.ar    1  UNL1        0.1568
      7 F          64.9241   85.2422   15.8438 F       1  UNL1       -0.2027
      8 C          64.8106   87.7695   15.2521 C.ar    1  UNL1        0.0461
      9 N          63.5171   84.5784   13.2787 N.pl3   1  UNL1       -0.3008
     10 C          64.2283   84.0403   12.0725 C.3     1  UNL1        0.1097
     11 C          64.1480   82.6668   11.4747 C.3     1  UNL1        0.1092
     12 N          63.3368   81.4924   11.9355 N.3     1  UNL1       -0.2249
     13 N          62.4054   81.4012   13.1078 N.am    1  UNL1       -0.2207
     14 C          61.7356   80.0736   13.3051 C.2     1  UNL1        0.2686
     15 O          62.0166   78.9439   12.3592 O.2     1  UNL1       -0.2709
     16 C          62.0553   82.4620   14.1089 C.3     1  UNL1        0.1327
     17 C          62.5501   83.8760   14.1848 C.3     1  UNL1        0.1141
     18 H          64.0231   80.7552   12.0964 H       1  UNL1        0.1453
     19 C          60.7848   79.8758   14.4483 C.3     1  UNL1        0.2245
     20 O          59.3698   80.3617   14.3396 O.3     1  UNL1       -0.3736
     21 H          59.3635   81.3304   14.2890 H       1  UNL1        0.2111
     22 C          65.6194   92.5410   14.6079 C.3     1  UNL1        0.2101
     23 C          65.6285   91.2089   13.9185 C.3     1  UNL1        0.1468
     24 N          64.6969   90.2967   14.6604 N.am    1  UNL1       -0.2211
     25 C          64.1122   91.0651   15.8083 C.2     1  UNL1        0.4088
     26 O          63.1299   90.5388   16.8122 O.2     1  UNL1       -0.2258
     27 O          64.6823   92.4521   15.7758 O.3     1  UNL1       -0.4345
     28 C          66.4088   93.7498   14.2009 C.3     1  UNL1        0.1358
     29 N          67.0678   93.7967   12.8542 N.am    1  UNL1       -0.2954
     30 H          67.9977   93.4905   12.7503 H       1  UNL1        0.1502
     31 C          66.3100   94.3100   11.6658 C.2     1  UNL1        0.2296
     32 S          65.5982   93.3506   10.7586 S.2     1  UNL1        0.0058
     33 C          65.3410   96.3162   10.3294 C.3     1  UNL1        0.2545
     34 O          66.2639   95.7826   11.3847 O.3     1  UNL1       -0.4543
@<TRIPOS>BOND
     1    33    34    1
     2    34    31    1
     3    31    32    2
     4    31    29    1
     5    29    28    1
     6    22    28    1
     7    22    23    1
     8    23    24    1
     9    24     1    1
    10     1     2   ar
    11     2     3   ar
    12     3     4    1
    13     3     5   ar
    14     5     9    1
    15     9    10    1
    16    10    11    1
    17    11    12    1
    18    12    13    1
    19    13    14   am
    20    14    15    2
    21    14    19    1
    22    19    20    1
    23    13    16    1
    24    16    17    1
    25     5     6   ar
    26     6     7    1
    27     6     8   ar
    28    24    25   am
    29    25    26    2
    30    25    27    1
    31    27    22    1
    32     8     1   ar
    33    17     9    1
    34    29    30    1
    35    12    18    1
    36    20    21    1
@<TRIPOS>MOLECULE
*****
 34 36 0 0 0
SMALL
GASTEIGER

@<TRIPOS>ATOM
      1 C          60.4997   91.7440    4.0160 C.ar    1  UNL1        0.0617
      2 C          61.9141   91.3284    3.7387 C.ar    1  UNL1        0.0461
      3 C          62.7356   92.0853    2.7375 C.ar    1  UNL1        0.1568
      4 F          64.1500   91.6697    2.4601 F       1  UNL1       -0.2027
      5 C          62.1427   93.2577    2.0137 C.ar    1  UNL1        0.1036
      6 C          60.7284   93.6733    2.2910 C.ar    1  UNL1        0.1568
      7 F          60.1355   94.8457    1.5672 F       1  UNL1       -0.2027
      8 C          59.9069   92.9164    3.2922 C.ar    1  UNL1        0.0461
      9 N          62.9642   94.0145    1.0125 N.pl3   1  UNL1       -0.3008
     10 C          63.9144   95.0261    1.5818 C.3     1  UNL1        0.1097
     11 C          64.8620   95.9327    0.8536 C.3     1  UNL1        0.1092
     12 N          65.0934   96.0516   -0.6235 N.3     1  UNL1       -0.2249
     13 N          64.4346   95.2934   -1.7375 N.am    1  UNL1       -0.2207
     14 C          64.8889   95.6463   -3.1228 C.2     1  UNL1        0.2686
     15 O          65.9388   96.6988   -3.3224 O.2     1  UNL1       -0.2709
     16 C          63.3814   94.2289   -1.6494 C.3     1  UNL1        0.1327
     17 C          62.7271   93.6598   -0.4254 C.3     1  UNL1        0.1141
     18 H          66.0893   95.8656   -0.7419 H       1  UNL1        0.1453
     19 C          64.2932   94.9467   -4.3085 C.3     1  UNL1        0.2245
     20 O          65.0025   93.7767   -4.9233 O.3     1  UNL1       -0.3736
     21 H          65.8390   94.0745   -5.3139 H       1  UNL1        0.2111
     22 C          59.0230   89.4371    6.7660 C.3     1  UNL1        0.2101
     23 C          60.1806   89.9187    5.9425 C.3     1  UNL1        0.1468
     24 N          59.6783   90.9872    5.0172 N.am    1  UNL1       -0.2211
     25 C          58.2104   91.1659    5.2688 C.2     1  UNL1        0.4088
     26 O          57.3063   92.1328    4.5635 O.2     1  UNL1       -0.2258
     27 O          57.8055   90.2078    6.3497 O.3     1  UNL1       -0.4345
     28 C          59.0741   88.3717    7.8207 C.3     1  UNL1        0.1358
     29 N          58.9807   86.9260    7.4316 N.am    1  UNL1       -0.2954
     30 H          58.1455   86.5722    7.0491 H       1  UNL1        0.1502
     31 C          60.1600   86.0195    7.6254 C.2     1  UNL1        0.2296
     32 S          61.1107   86.2580    8.7609 S.2     1  UNL1        0.0058
     33 C          61.7831   84.5153    6.2643 C.3     1  UNL1        0.2545
     34 O          60.3884   84.8745    6.6839 O.3     1  UNL1       -0.4543
@<TRIPOS>BOND
     1    33    34    1
     2    34    31    1
     3    31    32    2
     4    31    29    1
     5    29    28    1
     6    22    28    1
     7    22    23    1
     8    23    24    1
     9    24     1    1
    10     1     2   ar
    11     2     3   ar
    12     3     4    1
    13     3     5   ar
    14     5     9    1
    15     9    10    1
    16    10    11    1
    17    11    12    1
    18    12    13    1
    19    13    14   am
    20    14    15    2
    21    14    19    1
    22    19    20    1
    23    13    16    1
    24    16    17    1
    25     5     6   ar
    26     6     7    1
    27     6     8   ar
    28    24    25   am
    29    25    26    2
    30    25    27    1
    31    27    22    1
    32     8     1   ar
    33    17     9    1
    34    29    30    1
    35    12    18    1
    36    20    21    1
@<TRIPOS>MOLECULE
*****
 34 36 0 0 0
SMALL
GASTEIGER

@<TRIPOS>ATOM
      1 C          63.7542   87.7744   13.5150 C.ar    1  UNL1        0.0617
      2 C          64.2879   86.7653   14.4882 C.ar    1  UNL1        0.0461
      3 C          64.0481   85.3024   14.2588 C.ar    1  UNL1        0.1568
      4 F          64.5818   84.2934   15.2320 F       1  UNL1       -0.2027
      5 C          63.2746   84.8486   13.0565 C.ar    1  UNL1        0.1036
      6 C          62.7409   85.8576   12.0833 C.ar    1  UNL1        0.1568
      7 F          61.9674   85.4038   10.8810 F       1  UNL1       -0.2027
      8 C          62.9807   87.3205   12.3126 C.ar    1  UNL1        0.0461
      9 N          63.0348   83.3857   12.8273 N.pl3   1  UNL1       -0.3008
     10 C          62.4891   82.6244   13.9989 C.3     1  UNL1        0.1097
     11 C          62.1462   81.1668   14.0894 C.3     1  UNL1        0.1092
     12 N          62.2644   80.1109   13.0308 N.3     1  UNL1       -0.2249
     13 N          62.7546   80.2514   11.6201 N.am    1  UNL1       -0.2207
     14 C          62.7513   78.9944   10.8017 C.2     1  UNL1        0.2686
     15 O          62.2770   77.7065   11.4070 O.2     1  UNL1       -0.2709
     16 C          63.2478   81.4827   10.9197 C.3     1  UNL1        0.1327
     17 C          63.3724   82.8777   11.4571 C.3     1  UNL1        0.1141
     18 H          61.3203   79.7362   12.9371 H       1  UNL1        0.1453
     19 C          63.2223   79.0253    9.3778 C.3     1  UNL1        0.2245
     20 O          64.2698   78.0573    8.9132 O.3     1  UNL1       -0.3736
     21 H          65.1072   78.2455    9.3653 H       1  UNL1        0.2111
     22 C          64.9241   91.3227   14.5663 C.3     1  UNL1        0.2101
     23 C          65.0428   89.8292   14.6384 C.3     1  UNL1        0.1468
     24 N          63.9940   89.2371   13.7442 N.am    1  UNL1       -0.2211
     25 C          63.2271   90.3648   13.1195 C.2     1  UNL1        0.4088
     26 O          62.0859   90.2276   12.1559 O.2     1  UNL1       -0.2258
     27 O          63.8020   91.6538   13.6277 O.3     1  UNL1       -0.4345
     28 C          65.7777   92.3116   15.3036 C.3     1  UNL1        0.1358
     29 N          66.3363   93.5035   14.5842 N.am    1  UNL1       -0.2954
     30 H          66.4266   94.3641   15.0537 H       1  UNL1        0.1502
     31 C          66.7572   93.3841   13.1494 C.2     1  UNL1        0.2296
     32 S          66.1238   94.2570   12.1069 S.2     1  UNL1        0.0058
     33 C          67.9758   92.0016   11.3182 C.3     1  UNL1        0.2545
     34 O          67.8115   92.3920   12.7572 O.3     1  UNL1       -0.4543
@<TRIPOS>BOND
     1    33    34    1
     2    34    31    1
     3    31    32    2
     4    31    29    1
     5    29    28    1
     6    22    28    1
     7    22    23    1
     8    23    24    1
     9    24     1    1
    10     1     2   ar
    11     2     3   ar
    12     3     4    1
    13     3     5   ar
    14     5     9    1
    15     9    10    1
    16    10    11    1
    17    11    12    1
    18    12    13    1
    19    13    14   am
    20    14    15    2
    21    14    19    1
    22    19    20    1
    23    13    16    1
    24    16    17    1
    25     5     6   ar
    26     6     7    1
    27     6     8   ar
    28    24    25   am
    29    25    26    2
    30    25    27    1
    31    27    22    1
    32     8     1   ar
    33    17     9    1
    34    29    30    1
    35    12    18    1
    36    20    21    1
@<TRIPOS>MOLECULE
*****
 34 36 0 0 0
SMALL
GASTEIGER

@<TRIPOS>ATOM
      1 C          72.5360   77.9010   11.9917 C.ar    1  UNL1        0.0617
      2 C          73.1426   76.7029   11.3234 C.ar    1  UNL1        0.0461
      3 C          73.0192   75.3485   11.9563 C.ar    1  UNL1        0.1568
      4 F          73.6259   74.1504   11.2880 F       1  UNL1       -0.2027
      5 C          72.2892   75.1923   13.2573 C.ar    1  UNL1        0.1036
      6 C          71.6826   76.3903   13.9256 C.ar    1  UNL1        0.1568
      7 F          70.9526   76.2340   15.2266 F       1  UNL1       -0.2027
      8 C          71.8060   77.7448   13.2927 C.ar    1  UNL1        0.0461
      9 N          72.1659   73.8378   13.8901 N.pl3   1  UNL1       -0.3008
     10 C          72.8367   73.6785   15.2223 C.3     1  UNL1        0.1097
     11 C          72.8953   72.4637   16.1005 C.3     1  UNL1        0.1092
     12 N          72.2978   71.1086   15.8633 N.3     1  UNL1       -0.2249
     13 N          71.4940   70.6332   14.6895 N.am    1  UNL1       -0.2207
     14 C          71.0342   69.2068   14.7503 C.2     1  UNL1        0.2686
     15 O          71.3851   68.3555   15.9344 O.2     1  UNL1       -0.2709
     16 C          71.0892   71.3958   13.4628 C.3     1  UNL1        0.1327
     17 C          71.3883   72.8220   13.1071 C.3     1  UNL1        0.1141
     18 H          71.6913   70.9523   16.6684 H       1  UNL1        0.1453
     19 C          70.2234   68.6316   13.6269 C.3     1  UNL1        0.2245
     20 O          70.5190   67.2515   13.1187 O.3     1  UNL1       -0.3736
     21 H          71.3975   67.2396   12.7076 H       1  UNL1        0.2111
     22 C          72.7224   81.0361    9.7110 C.3     1  UNL1        0.2101
     23 C          72.5268   79.5605    9.8962 C.3     1  UNL1        0.1468
     24 N          72.6593   79.2554   11.3589 N.am    1  UNL1       -0.2211
     25 C          72.9368   80.5424   12.0776 C.2     1  UNL1        0.4088
     26 O          73.1397   80.7010   13.5553 O.2     1  UNL1       -0.2258
     27 O          72.9758   81.6429   11.0591 O.3     1  UNL1       -0.4345
     28 C          72.6733   81.7751    8.4066 C.3     1  UNL1        0.1358
     29 N          72.9065   81.0411    7.1194 N.am    1  UNL1       -0.2954
     30 H          73.5396   80.2877    7.0902 H       1  UNL1        0.1502
     31 C          72.1752   81.4550    5.8769 C.2     1  UNL1        0.2296
     32 S          70.9348   80.7231    5.4578 S.2     1  UNL1        0.0058
     33 C          73.4750   82.3351    3.8067 C.3     1  UNL1        0.2545
     34 O          72.6844   82.6006    5.0535 O.3     1  UNL1       -0.4543
@<TRIPOS>BOND
     1    33    34    1
     2    34    31    1
     3    31    32    2
     4    31    29    1
     5    29    28    1
     6    22    28    1
     7    22    23    1
     8    23    24    1
     9    24     1    1
    10     1     2   ar
    11     2     3   ar
    12     3     4    1
    13     3     5   ar
    14     5     9    1
    15     9    10    1
    16    10    11    1
    17    11    12    1
    18    12    13    1
    19    13    14   am
    20    14    15    2
    21    14    19    1
    22    19    20    1
    23    13    16    1
    24    16    17    1
    25     5     6   ar
    26     6     7    1
    27     6     8   ar
    28    24    25   am
    29    25    26    2
    30    25    27    1
    31    27    22    1
    32     8     1   ar
    33    17     9    1
    34    29    30    1
    35    12    18    1
    36    20    21    1
@<TRIPOS>MOLECULE
*****
 34 36 0 0 0
SMALL
GASTEIGER

@<TRIPOS>ATOM
      1 C          72.6487   78.1412   11.7248 C.ar    1  UNL1        0.0617
      2 C          73.2860   76.8567   11.2842 C.ar    1  UNL1        0.0461
      3 C          72.9923   75.5829   12.0199 C.ar    1  UNL1        0.1568
      4 F          73.6296   74.2984   11.5793 F       1  UNL1       -0.2027
      5 C          72.0614   75.5935   13.1960 C.ar    1  UNL1        0.1036
      6 C          71.4242   76.8779   13.6366 C.ar    1  UNL1        0.1568
      7 F          70.4933   76.8885   14.8127 F       1  UNL1       -0.2027
      8 C          71.7178   78.1518   12.9010 C.ar    1  UNL1        0.0461
      9 N          71.7679   74.3196   13.9316 N.pl3   1  UNL1       -0.3008
     10 C          71.4112   73.1409   13.0750 C.3     1  UNL1        0.1097
     11 C          71.0684   71.7443   13.5017 C.3     1  UNL1        0.1092
     12 N          70.9975   71.1815   14.8902 N.3     1  UNL1       -0.2249
     13 N          71.2519   71.8762   16.1951 N.am    1  UNL1       -0.2207
     14 C          71.0978   71.0299   17.4239 C.2     1  UNL1        0.2686
     15 O          70.7119   69.5860   17.2965 O.2     1  UNL1       -0.2709
     16 C          71.6401   73.3053   16.4337 C.3     1  UNL1        0.1327
     17 C          71.8697   74.3927   15.4262 C.3     1  UNL1        0.1141
     18 H          71.6547   70.4015   14.8836 H       1  UNL1        0.1453
     19 C          71.3296   71.6275   18.7801 C.3     1  UNL1        0.2245
     20 O          70.1878   72.2427   19.5337 O.3     1  UNL1       -0.3736
     21 H          69.8749   73.0297   19.0609 H       1  UNL1        0.2111
     22 C          73.2466   81.0333    9.2063 C.3     1  UNL1        0.2101
     23 C          72.8761   79.6105    9.5035 C.3     1  UNL1        0.1468
     24 N          72.9423   79.4150   10.9893 N.am    1  UNL1       -0.2211
     25 C          73.3536   80.7170   11.6102 C.2     1  UNL1        0.4088
     26 O          73.5436   80.9737   13.0758 O.2     1  UNL1       -0.2258
     27 O          73.5417   81.7171   10.5082 O.3     1  UNL1       -0.4345
     28 C          73.3106   81.6619    7.8458 C.3     1  UNL1        0.1358
     29 N          72.1505   81.5315    6.9039 N.am    1  UNL1       -0.2954
     30 H          71.2488   81.8007    7.1934 H       1  UNL1        0.1502
     31 C          72.3641   80.9911    5.5211 C.2     1  UNL1        0.2296
     32 S          72.9285   81.8756    4.4491 S.2     1  UNL1        0.0058
     33 C          72.6586   78.4506    5.9779 C.3     1  UNL1        0.2545
     34 O          72.0135   79.5662    5.2103 O.3     1  UNL1       -0.4543
@<TRIPOS>BOND
     1    33    34    1
     2    34    31    1
     3    31    32    2
     4    31    29    1
     5    29    28    1
     6    22    28    1
     7    22    23    1
     8    23    24    1
     9    24     1    1
    10     1     2   ar
    11     2     3   ar
    12     3     4    1
    13     3     5   ar
    14     5     9    1
    15     9    10    1
    16    10    11    1
    17    11    12    1
    18    12    13    1
    19    13    14   am
    20    14    15    2
    21    14    19    1
    22    19    20    1
    23    13    16    1
    24    16    17    1
    25     5     6   ar
    26     6     7    1
    27     6     8   ar
    28    24    25   am
    29    25    26    2
    30    25    27    1
    31    27    22    1
    32     8     1   ar
    33    17     9    1
    34    29    30    1
    35    12    18    1
    36    20    21    1
@<TRIPOS>MOLECULE
*****
 34 36 0 0 0
SMALL
GASTEIGER

@<TRIPOS>ATOM
      1 C          59.8469   89.1655    7.0587 C.ar    1  UNL1        0.0617
      2 C          60.6634   89.6356    8.2260 C.ar    1  UNL1        0.0461
      3 C          61.2844   88.6373    9.1575 C.ar    1  UNL1        0.1568
      4 F          62.1008   89.1074   10.3248 F       1  UNL1       -0.2027
      5 C          61.0889   87.1689    8.9218 C.ar    1  UNL1        0.1036
      6 C          60.2725   86.6987    7.7546 C.ar    1  UNL1        0.1568
      7 F          60.0771   85.2303    7.5189 F       1  UNL1       -0.2027
      8 C          59.6515   87.6971    6.8230 C.ar    1  UNL1        0.0461
      9 N          61.7100   86.1706    9.8534 N.pl3   1  UNL1       -0.3008
     10 C          62.6510   85.1883    9.2212 C.3     1  UNL1        0.1097
     11 C          63.4223   84.0793    9.8735 C.3     1  UNL1        0.1092
     12 N          63.4432   83.6790   11.3188 N.3     1  UNL1       -0.2249
     13 N          62.6979   84.2885   12.4691 N.am    1  UNL1       -0.2207
     14 C          62.9340   83.6536   13.8073 C.2     1  UNL1        0.2686
     15 O          63.8670   82.4854   13.9291 O.2     1  UNL1       -0.2709
     16 C          61.7476   85.4491   12.4579 C.3     1  UNL1        0.1327
     17 C          61.3080   86.2866   11.2938 C.3     1  UNL1        0.1141
     18 H          64.4250   83.7434   11.5877 H       1  UNL1        0.1453
     19 C          62.2372   84.1869   15.0240 C.3     1  UNL1        0.2245
     20 O          62.8310   85.3347   15.7857 O.3     1  UNL1       -0.3736
     21 H          63.6692   85.0571   16.1873 H       1  UNL1        0.2111
     22 C          58.9531   91.9286    4.4836 C.3     1  UNL1        0.2101
     23 C          59.9657   91.1204    5.2396 C.3     1  UNL1        0.1468
     24 N          59.2260   90.1637    6.1272 N.am    1  UNL1       -0.2211
     25 C          57.7563   90.3807    5.9198 C.2     1  UNL1        0.4088
     26 O          56.6497   89.6375    6.6073 O.2     1  UNL1       -0.2258
     27 O          57.5877   91.4714    4.9039 O.3     1  UNL1       -0.4345
     28 C          59.2533   93.0049    3.4829 C.3     1  UNL1        0.1358
     29 N          59.3703   92.6638    2.0268 N.am    1  UNL1       -0.2954
     30 H          58.5676   92.4171    1.5130 H       1  UNL1        0.1502
     31 C          60.7104   92.6985    1.3537 C.2     1  UNL1        0.2296
     32 S          60.8338   92.3167   -0.0916 S.2     1  UNL1        0.0058
     33 C          62.8169   92.0761    2.7411 C.3     1  UNL1        0.2545
     34 O          61.9269   93.1151    2.1260 O.3     1  UNL1       -0.4543
@<TRIPOS>BOND
     1    33    34    1
     2    34    31    1
     3    31    32    2
     4    31    29    1
     5    29    28    1
     6    22    28    1
     7    22    23    1
     8    23    24    1
     9    24     1    1
    10     1     2   ar
    11     2     3   ar
    12     3     4    1
    13     3     5   ar
    14     5     9    1
    15     9    10    1
    16    10    11    1
    17    11    12    1
    18    12    13    1
    19    13    14   am
    20    14    15    2
    21    14    19    1
    22    19    20    1
    23    13    16    1
    24    16    17    1
    25     5     6   ar
    26     6     7    1
    27     6     8   ar
    28    24    25   am
    29    25    26    2
    30    25    27    1
    31    27    22    1
    32     8     1   ar
    33    17     9    1
    34    29    30    1
    35    12    18    1
    36    20    21    1
@<TRIPOS>MOLECULE
*****
 34 36 0 0 0
SMALL
GASTEIGER

@<TRIPOS>ATOM
      1 C          71.9044   76.7385   13.3006 C.ar    1  UNL1        0.0617
      2 C          72.8872   75.6063   13.3483 C.ar    1  UNL1        0.0461
      3 C          72.6483   74.4440   14.2659 C.ar    1  UNL1        0.1568
      4 F          73.6311   73.3118   14.3137 F       1  UNL1       -0.2027
      5 C          71.4266   74.4138   15.1357 C.ar    1  UNL1        0.1036
      6 C          70.4438   75.5459   15.0879 C.ar    1  UNL1        0.1568
      7 F          69.2221   75.5157   15.9577 F       1  UNL1       -0.2027
      8 C          70.6827   76.7083   14.1703 C.ar    1  UNL1        0.0461
      9 N          71.1877   73.2514   16.0532 N.pl3   1  UNL1       -0.3008
     10 C          70.7085   73.5982   17.4317 C.3     1  UNL1        0.1097
     11 C          70.3829   72.6752   18.5684 C.3     1  UNL1        0.1092
     12 N          70.4561   71.1776   18.6074 N.3     1  UNL1       -0.2249
     13 N          70.8729   70.2329   17.5193 N.am    1  UNL1       -0.2207
     14 C          70.8385   68.7759   17.8739 C.2     1  UNL1        0.2686
     15 O          70.4064   68.3476   19.2450 O.2     1  UNL1       -0.2709
     16 C          71.3195   70.5527   16.1235 C.3     1  UNL1        0.1327
     17 C          71.4596   71.8961   15.4711 C.3     1  UNL1        0.1141
     18 H          69.5116   70.8820   18.8544 H       1  UNL1        0.1453
     19 C          71.2363   67.7470   16.8574 C.3     1  UNL1        0.2245
     20 O          72.6783   67.5880   16.4758 O.3     1  UNL1       -0.3736
     21 H          72.9833   68.3899   16.0231 H       1  UNL1        0.2111
     22 C          72.4041   79.2431   10.3779 C.3     1  UNL1        0.2101
     23 C          72.1109   77.8618   10.8839 C.3     1  UNL1        0.1468
     24 N          72.1432   77.9008   12.3831 N.am    1  UNL1       -0.2211
     25 C          72.4564   79.3062   12.8036 C.2     1  UNL1        0.4088
     26 O          72.5857   79.7959   14.2154 O.2     1  UNL1       -0.2258
     27 O          72.6176   80.1357   11.5642 O.3     1  UNL1       -0.4345
     28 C          72.4718   79.6588    8.9382 C.3     1  UNL1        0.1358
     29 N          73.5876   80.5423    8.4643 N.am    1  UNL1       -0.2954
     30 H          74.5168   80.3420    8.7207 H       1  UNL1        0.1502
     31 C          73.2876   81.7309    7.5999 C.2     1  UNL1        0.2296
     32 S          73.1423   81.5618    6.1165 S.2     1  UNL1        0.0058
     33 C          71.9638   83.3760    9.1133 C.3     1  UNL1        0.2545
     34 O          73.1330   83.0884    8.2187 O.3     1  UNL1       -0.4543
@<TRIPOS>BOND
     1    33    34    1
     2    34    31    1
     3    31    32    2
     4    31    29    1
     5    29    28    1
     6    22    28    1
     7    22    23    1
     8    23    24    1
     9    24     1    1
    10     1     2   ar
    11     2     3   ar
    12     3     4    1
    13     3     5   ar
    14     5     9    1
    15     9    10    1
    16    10    11    1
    17    11    12    1
    18    12    13    1
    19    13    14   am
    20    14    15    2
    21    14    19    1
    22    19    20    1
    23    13    16    1
    24    16    17    1
    25     5     6   ar
    26     6     7    1
    27     6     8   ar
    28    24    25   am
    29    25    26    2
    30    25    27    1
    31    27    22    1
    32     8     1   ar
    33    17     9    1
    34    29    30    1
    35    12    18    1
    36    20    21    1
