@<TRIPOS>MOLECULE
*****
 40 44 0 0 0
SMALL
GASTEIGER

@<TRIPOS>ATOM
      1 C          59.2369   88.5428    7.2874 C.2     1  UNL1        0.2252
      2 O          58.2589   87.4372    7.0213 O.2     1  UNL1       -0.2749
      3 N          60.1267   88.4827    8.4935 N.am    1  UNL1       -0.2794
      4 C          60.0385   87.3170    9.4333 C.3     1  UNL1        0.0953
      5 C          60.9284   87.2569   10.6394 C.3     1  UNL1        0.0442
      6 C          61.9065   88.3626   10.9056 C.3     1  UNL1        0.0933
      7 C          61.9946   89.5283    9.9658 C.3     1  UNL1        0.0442
      8 C          61.1048   89.5884    8.7598 C.3     1  UNL1        0.0953
      9 N          62.7963   88.3026   12.1117 N.ar    1  UNL1       -0.2817
     10 C          63.1066   87.0765   12.9182 C.ar    1  UNL1        0.3317
     11 O          62.5815   85.6953   12.6604 O.2     1  UNL1       -0.2463
     12 N          64.0342   87.4742   14.0280 N.ar    1  UNL1       -0.2713
     13 C          64.2971   88.9461   13.9072 C.ar    1  UNL1        0.0822
     14 C          65.1344   89.8862   14.7227 C.ar    1  UNL1        0.0484
     15 C          65.2066   91.3384   14.3539 C.ar    1  UNL1        0.1417
     16 F          66.0438   92.2786   15.1694 F       1  UNL1       -0.2041
     17 C          64.4415   91.8503   13.1695 C.ar    1  UNL1        0.0312
     18 C          63.6043   90.9101   12.3541 C.ar    1  UNL1        0.0211
     19 C          63.5321   89.4580   12.7229 C.ar    1  UNL1        0.0798
     20 C          64.5995   86.5606   15.0746 C.3     1  UNL1        0.2135
     21 C          63.7171   86.0368   16.1689 C.3     1  UNL1        0.4184
     22 F          62.8348   85.5131   17.2630 F       1  UNL1       -0.1679
     23 F          63.9336   84.6375   15.6736 F       1  UNL1       -0.1679
     24 F          63.5007   87.4360   16.6640 F       1  UNL1       -0.1679
     25 N          59.5016   92.0400    4.4680 N.3     1  UNL1       -0.2689
     26 C          60.7369   91.2652    4.8199 C.3     1  UNL1        0.0729
     27 C          60.6486   90.0994    5.7597 C.3     1  UNL1        0.0264
     28 C          59.3251   89.7086    6.3476 C.3     1  UNL1        0.0795
     29 C          58.0899   90.4834    5.9958 C.3     1  UNL1        0.0264
     30 C          58.1781   91.6491    5.0559 C.3     1  UNL1        0.0729
     31 C          59.5898   93.2058    3.5282 C.3     1  UNL1        0.0993
     32 N          58.8495   92.2624   -1.5277 N.pl3   1  UNL1       -0.3426
     33 C          59.7740   92.5441   -0.3805 C.ar    1  UNL1        0.1251
     34 C          59.2196   92.7341    1.0003 C.ar    1  UNL1        0.0310
     35 C          60.1442   93.0158    2.1475 C.ar    1  UNL1       -0.0018
     36 C          61.6230   93.1075    1.9138 C.ar    1  UNL1        0.0179
     37 C          62.1773   92.9175    0.5330 C.ar    1  UNL1        0.1000
     38 N          61.2528   92.6358   -0.6141 N.ar    1  UNL1       -0.2296
     39 H          57.8789   92.2022   -1.3744 H       1  UNL1        0.1437
     40 H          59.2134   92.1377   -2.4339 H       1  UNL1        0.1437
@<TRIPOS>BOND
     1    32    33    1
     2    33    34   ar
     3    34    35   ar
     4    35    31    1
     5    31    25    1
     6    25    26    1
     7    26    27    1
     8    27    28    1
     9    28     1    1
    10     1     2    2
    11     1     3   am
    12     3     4    1
    13     4     5    1
    14     5     6    1
    15     6     9    1
    16     9    10   ar
    17    10    11    2
    18    10    12   ar
    19    12    20    1
    20    20    21    1
    21    21    22    1
    22    21    23    1
    23    21    24    1
    24    12    13   ar
    25    13    14   ar
    26    14    15   ar
    27    15    16    1
    28    15    17   ar
    29    17    18   ar
    30    18    19   ar
    31     6     7    1
    32     7     8    1
    33    28    29    1
    34    29    30    1
    35    35    36   ar
    36    36    37   ar
    37    37    38   ar
    38    38    33   ar
    39    30    25    1
    40     8     3    1
    41    19     9   ar
    42    19    13   ar
    43    32    39    1
    44    32    40    1
@<TRIPOS>MOLECULE
*****
 40 44 0 0 0
SMALL
GASTEIGER

@<TRIPOS>ATOM
      1 C          59.1986   88.5700    7.2388 C.2     1  UNL1        0.2252
      2 O          58.2055   87.4781    6.9716 O.2     1  UNL1       -0.2749
      3 N          60.0878   88.4963    8.4446 N.am    1  UNL1       -0.2794
      4 C          59.9838   87.3307    9.3831 C.3     1  UNL1        0.0953
      5 C          60.8730   87.2571   10.5889 C.3     1  UNL1        0.0442
      6 C          61.8662   88.3490   10.8562 C.3     1  UNL1        0.0933
      7 C          61.9701   89.5145    9.9178 C.3     1  UNL1        0.0442
      8 C          61.0809   89.5881    8.7120 C.3     1  UNL1        0.0953
      9 N          62.7553   88.2753   12.0620 N.ar    1  UNL1       -0.2817
     10 C          63.3532   89.4431   12.7893 C.ar    1  UNL1        0.3317
     11 O          63.1669   90.8895   12.4385 O.2     1  UNL1       -0.2463
     12 N          64.1701   88.9104   13.9290 N.ar    1  UNL1       -0.2713
     13 C          64.0771   87.4134   13.9061 C.ar    1  UNL1        0.0822
     14 C          64.6757   86.3570   14.7868 C.ar    1  UNL1        0.0484
     15 C          64.3999   84.9082   14.5137 C.ar    1  UNL1        0.1417
     16 F          64.9984   83.8517   15.3944 F       1  UNL1       -0.2041
     17 C          63.5255   84.5157   13.3598 C.ar    1  UNL1        0.0312
     18 C          62.9269   85.5721   12.4791 C.ar    1  UNL1        0.0211
     19 C          63.2027   87.0209   12.7522 C.ar    1  UNL1        0.0798
     20 C          64.9441   89.7306   14.9180 C.3     1  UNL1        0.2135
     21 C          64.2404   90.7584   15.7539 C.3     1  UNL1        0.4184
     22 F          63.5368   91.7860   16.5898 F       1  UNL1       -0.1679
     23 F          65.0100   91.8458   15.0647 F       1  UNL1       -0.1679
     24 F          63.4709   89.6708   16.4431 F       1  UNL1       -0.1679
     25 N          59.5104   92.0666    4.4235 N.3     1  UNL1       -0.2689
     26 C          60.7363   91.2788    4.7797 C.3     1  UNL1        0.0729
     27 C          60.6323   90.1133    5.7182 C.3     1  UNL1        0.0264
     28 C          59.3025   89.7355    6.3004 C.3     1  UNL1        0.0795
     29 C          58.0767   90.5232    5.9443 C.3     1  UNL1        0.0264
     30 C          58.1807   91.6888    5.0058 C.3     1  UNL1        0.0729
     31 C          59.6144   93.2321    3.4851 C.3     1  UNL1        0.0993
     32 N          58.8726   92.2367   -1.5606 N.pl3   1  UNL1       -0.3426
     33 C          59.7966   92.5389   -0.4182 C.ar    1  UNL1        0.1251
     34 C          59.2435   92.7345    0.9623 C.ar    1  UNL1        0.0310
     35 C          60.1675   93.0366    2.1046 C.ar    1  UNL1       -0.0018
     36 C          61.6446   93.1432    1.8664 C.ar    1  UNL1        0.0179
     37 C          62.1977   92.9476    0.4859 C.ar    1  UNL1        0.1000
     38 N          61.2737   92.6455   -0.6564 N.ar    1  UNL1       -0.2296
     39 H          57.9031   92.1668   -1.4043 H       1  UNL1        0.1437
     40 H          59.2357   92.1084   -2.4667 H       1  UNL1        0.1437
@<TRIPOS>BOND
     1    32    33    1
     2    33    34   ar
     3    34    35   ar
     4    35    31    1
     5    31    25    1
     6    25    26    1
     7    26    27    1
     8    27    28    1
     9    28     1    1
    10     1     2    2
    11     1     3   am
    12     3     4    1
    13     4     5    1
    14     5     6    1
    15     6     9    1
    16     9    10   ar
    17    10    11    2
    18    10    12   ar
    19    12    20    1
    20    20    21    1
    21    21    22    1
    22    21    23    1
    23    21    24    1
    24    12    13   ar
    25    13    14   ar
    26    14    15   ar
    27    15    16    1
    28    15    17   ar
    29    17    18   ar
    30    18    19   ar
    31     6     7    1
    32     7     8    1
    33    28    29    1
    34    29    30    1
    35    35    36   ar
    36    36    37   ar
    37    37    38   ar
    38    38    33   ar
    39    30    25    1
    40     8     3    1
    41    19     9   ar
    42    19    13   ar
    43    32    39    1
    44    32    40    1
@<TRIPOS>MOLECULE
*****
 40 44 0 0 0
SMALL
GASTEIGER

@<TRIPOS>ATOM
      1 C          62.6670   86.3793   16.7376 C.2     1  UNL1        0.2252
      2 O          61.8821   86.5079   18.0094 O.2     1  UNL1       -0.2749
      3 N          63.2773   87.5957   16.1068 N.am    1  UNL1       -0.2794
      4 C          63.1028   88.9406   16.7478 C.3     1  UNL1        0.0953
      5 C          63.7132   90.1570   16.1170 C.3     1  UNL1        0.0442
      6 C          64.4981   90.0284   14.8452 C.3     1  UNL1        0.0933
      7 C          64.6726   88.6836   14.2043 C.3     1  UNL1        0.0442
      8 C          64.0623   87.4672   14.8351 C.3     1  UNL1        0.0953
      9 N          65.1085   91.2448   14.2144 N.ar    1  UNL1       -0.2817
     10 C          64.7666   91.8040   12.8652 C.ar    1  UNL1        0.3317
     11 O          63.7542   91.2450   11.9098 O.2     1  UNL1       -0.2463
     12 N          65.6148   93.0203   12.6390 N.ar    1  UNL1       -0.2713
     13 C          66.4809   93.2128   13.8484 C.ar    1  UNL1        0.0822
     14 C          67.5141   94.2456   14.1889 C.ar    1  UNL1        0.0484
     15 C          68.2344   94.1810   15.5031 C.ar    1  UNL1        0.1417
     16 F          69.2676   95.2137   15.8436 F       1  UNL1       -0.2041
     17 C          67.9215   93.0836   16.4767 C.ar    1  UNL1        0.0312
     18 C          66.8883   92.0509   16.1362 C.ar    1  UNL1        0.0211
     19 C          66.1681   92.1155   14.8221 C.ar    1  UNL1        0.0798
     20 C          65.5995   93.8912   11.4178 C.3     1  UNL1        0.2135
     21 C          66.8109   93.9683   10.5364 C.3     1  UNL1        0.4184
     22 F          68.0221   94.0454    9.6551 F       1  UNL1       -0.1679
     23 F          66.9119   95.4408   10.8042 F       1  UNL1       -0.1679
     24 F          66.7097   92.4959   10.2687 F       1  UNL1       -0.1679
     25 N          63.1905   82.3447   14.8148 N.3     1  UNL1       -0.2689
     26 C          61.8200   82.9395   14.9488 C.3     1  UNL1        0.0729
     27 C          61.6454   84.2844   15.5898 C.3     1  UNL1        0.0264
     28 C          62.8415   85.0345   16.0967 C.3     1  UNL1        0.0795
     29 C          64.2120   84.4397   15.9627 C.3     1  UNL1        0.0264
     30 C          64.3865   83.0949   15.3217 C.3     1  UNL1        0.0729
     31 C          63.3651   80.9999   14.1738 C.3     1  UNL1        0.0993
     32 N          62.4410   78.1195    9.9489 N.pl3   1  UNL1       -0.3426
     33 C          62.8392   79.4262   10.5688 C.ar    1  UNL1        0.1251
     34 C          62.9031   79.5597   12.0614 C.ar    1  UNL1        0.0310
     35 C          63.3012   80.8664   12.6812 C.ar    1  UNL1       -0.0018
     36 C          63.6355   82.0395   11.8082 C.ar    1  UNL1        0.0179
     37 C          63.5717   81.9060   10.3156 C.ar    1  UNL1        0.1000
     38 N          63.1735   80.5993    9.6958 N.ar    1  UNL1       -0.2296
     39 H          62.2216   77.3495   10.5218 H       1  UNL1        0.1437
     40 H          62.3991   78.0319    8.9692 H       1  UNL1        0.1437
@<TRIPOS>BOND
     1    32    33    1
     2    33    34   ar
     3    34    35   ar
     4    35    31    1
     5    31    25    1
     6    25    26    1
     7    26    27    1
     8    27    28    1
     9    28     1    1
    10     1     2    2
    11     1     3   am
    12     3     4    1
    13     4     5    1
    14     5     6    1
    15     6     9    1
    16     9    10   ar
    17    10    11    2
    18    10    12   ar
    19    12    20    1
    20    20    21    1
    21    21    22    1
    22    21    23    1
    23    21    24    1
    24    12    13   ar
    25    13    14   ar
    26    14    15   ar
    27    15    16    1
    28    15    17   ar
    29    17    18   ar
    30    18    19   ar
    31     6     7    1
    32     7     8    1
    33    28    29    1
    34    29    30    1
    35    35    36   ar
    36    36    37   ar
    37    37    38   ar
    38    38    33   ar
    39    30    25    1
    40     8     3    1
    41    19     9   ar
    42    19    13   ar
    43    32    39    1
    44    32    40    1
@<TRIPOS>MOLECULE
*****
 40 44 0 0 0
SMALL
GASTEIGER

@<TRIPOS>ATOM
      1 C          62.5738   86.5964   16.6843 C.2     1  UNL1        0.2252
      2 O          61.6171   86.7124   17.8337 O.2     1  UNL1       -0.2749
      3 N          63.2907   87.8134   16.1795 N.am    1  UNL1       -0.2794
      4 C          63.0510   89.1464   16.8241 C.3     1  UNL1        0.0953
      5 C          63.7679   90.3635   16.3193 C.3     1  UNL1        0.0442
      6 C          64.7247   90.2475   15.1698 C.3     1  UNL1        0.0933
      7 C          64.9644   88.9145   14.5253 C.3     1  UNL1        0.0442
      8 C          64.2475   87.6974   15.0301 C.3     1  UNL1        0.0953
      9 N          65.4416   91.4645   14.6650 N.ar    1  UNL1       -0.2817
     10 C          66.3655   92.3373   15.4616 C.ar    1  UNL1        0.3317
     11 O          66.7348   92.1463   16.9028 O.2     1  UNL1       -0.2463
     12 N          66.8554   93.4346   14.5639 N.ar    1  UNL1       -0.2713
     13 C          66.2342   93.2400   13.2125 C.ar    1  UNL1        0.0822
     14 C          66.3513   94.0142   11.9331 C.ar    1  UNL1        0.0484
     15 C          65.5946   93.5708   10.7162 C.ar    1  UNL1        0.1417
     16 F          65.7117   94.3450    9.4368 F       1  UNL1       -0.2041
     17 C          64.7208   92.3532   10.7788 C.ar    1  UNL1        0.0312
     18 C          64.6037   91.5790   12.0581 C.ar    1  UNL1        0.0211
     19 C          65.3604   92.0224   13.2750 C.ar    1  UNL1        0.0798
     20 C          67.8005   94.5336   14.9497 C.3     1  UNL1        0.2135
     21 C          69.0369   94.2172   15.7381 C.3     1  UNL1        0.4184
     22 F          70.2732   93.9008   16.5263 F       1  UNL1       -0.1679
     23 F          68.8382   95.4629   16.5497 F       1  UNL1       -0.1679
     24 F          69.2356   92.9716   14.9264 F       1  UNL1       -0.1679
     25 N          63.2932   82.5973   14.7504 N.3     1  UNL1       -0.2689
     26 C          61.8946   83.1205   14.8937 C.3     1  UNL1        0.0729
     27 C          61.6548   84.4535   15.5383 C.3     1  UNL1        0.0264
     28 C          62.8136   85.2633   16.0397 C.3     1  UNL1        0.0795
     29 C          64.2121   84.7402   15.8965 C.3     1  UNL1        0.0264
     30 C          64.4519   83.4072   15.2519 C.3     1  UNL1        0.0729
     31 C          63.5330   81.2643   14.1058 C.3     1  UNL1        0.0993
     32 N          62.4516   78.4088    9.9014 N.pl3   1  UNL1       -0.3426
     33 C          62.9118   79.6993   10.5121 C.ar    1  UNL1        0.1251
     34 C          62.9923   79.8366   12.0037 C.ar    1  UNL1        0.0310
     35 C          63.4525   81.1271   12.6143 C.ar    1  UNL1       -0.0018
     36 C          63.8322   82.2803   11.7334 C.ar    1  UNL1        0.0179
     37 C          63.7517   82.1430   10.2419 C.ar    1  UNL1        0.1000
     38 N          63.2915   80.8525    9.6313 N.ar    1  UNL1       -0.2296
     39 H          62.2024   77.6519   10.4795 H       1  UNL1        0.1437
     40 H          62.3988   78.3188    8.9225 H       1  UNL1        0.1437
@<TRIPOS>BOND
     1    32    33    1
     2    33    34   ar
     3    34    35   ar
     4    35    31    1
     5    31    25    1
     6    25    26    1
     7    26    27    1
     8    27    28    1
     9    28     1    1
    10     1     2    2
    11     1     3   am
    12     3     4    1
    13     4     5    1
    14     5     6    1
    15     6     9    1
    16     9    10   ar
    17    10    11    2
    18    10    12   ar
    19    12    20    1
    20    20    21    1
    21    21    22    1
    22    21    23    1
    23    21    24    1
    24    12    13   ar
    25    13    14   ar
    26    14    15   ar
    27    15    16    1
    28    15    17   ar
    29    17    18   ar
    30    18    19   ar
    31     6     7    1
    32     7     8    1
    33    28    29    1
    34    29    30    1
    35    35    36   ar
    36    36    37   ar
    37    37    38   ar
    38    38    33   ar
    39    30    25    1
    40     8     3    1
    41    19     9   ar
    42    19    13   ar
    43    32    39    1
    44    32    40    1
@<TRIPOS>MOLECULE
*****
 40 44 0 0 0
SMALL
GASTEIGER

@<TRIPOS>ATOM
      1 C          58.5669   89.8884    6.4862 C.2     1  UNL1        0.2252
      2 O          57.0961   90.1031    6.6879 O.2     1  UNL1       -0.2749
      3 N          59.3006   90.6651    5.4334 N.am    1  UNL1       -0.2794
      4 C          58.5636   91.6562    4.5823 C.3     1  UNL1        0.0953
      5 C          59.2974   92.4329    3.5295 C.3     1  UNL1        0.0442
      6 C          60.7683   92.2183    3.3277 C.3     1  UNL1        0.0933
      7 C          61.5052   91.2271    4.1788 C.3     1  UNL1        0.0442
      8 C          60.7714   90.4505    5.2316 C.3     1  UNL1        0.0953
      9 N          61.5021   92.9949    2.2749 N.ar    1  UNL1       -0.2817
     10 C          62.9895   93.0358    2.0856 C.ar    1  UNL1        0.3317
     11 O          64.0044   92.3074    2.9160 O.2     1  UNL1       -0.2463
     12 N          63.2839   93.9331    0.9202 N.ar    1  UNL1       -0.2713
     13 C          61.9784   94.4468    0.3892 C.ar    1  UNL1        0.0822
     14 C          61.6502   95.3675   -0.7484 C.ar    1  UNL1        0.0484
     15 C          60.2207   95.7084   -1.0489 C.ar    1  UNL1        0.1417
     16 F          59.8924   96.6292   -2.1866 F       1  UNL1       -0.2041
     17 C          59.1195   95.1285   -0.2117 C.ar    1  UNL1        0.0312
     18 C          59.4477   94.2077    0.9260 C.ar    1  UNL1        0.0211
     19 C          60.8772   93.8669    1.2265 C.ar    1  UNL1        0.0798
     20 C          64.6449   94.2596    0.3806 C.3     1  UNL1        0.2135
     21 C          65.3048   95.5566    0.7446 C.3     1  UNL1        0.4184
     22 F          65.9647   96.8534    1.1088 F       1  UNL1       -0.1679
     23 F          65.4176   95.9073   -0.7094 F       1  UNL1       -0.1679
     24 F          65.1920   95.2057    2.1986 F       1  UNL1       -0.1679
     25 N          60.7779   86.9149    9.0394 N.3     1  UNL1       -0.2689
     26 C          60.8764   88.3812    9.3400 C.3     1  UNL1        0.0729
     27 C          60.1394   89.3724    8.4889 C.3     1  UNL1        0.0264
     28 C          59.3039   88.8972    7.3373 C.3     1  UNL1        0.0795
     29 C          59.2053   87.4310    7.0368 C.3     1  UNL1        0.0264
     30 C          59.9423   86.4398    7.8878 C.3     1  UNL1        0.0729
     31 C          61.5149   85.9237    9.8905 C.3     1  UNL1        0.0993
     32 N          63.5868   89.7734   12.6989 N.pl3   1  UNL1       -0.3426
     33 C          63.3025   88.3131   12.5067 C.ar    1  UNL1        0.1251
     34 C          62.5508   87.8485   11.2947 C.ar    1  UNL1        0.0310
     35 C          62.2665   86.3882   11.1026 C.ar    1  UNL1       -0.0018
     36 C          62.7339   85.3926   12.1225 C.ar    1  UNL1        0.0179
     37 C          63.4856   85.8573   13.3346 C.ar    1  UNL1        0.1000
     38 N          63.7699   87.3175   13.5267 N.ar    1  UNL1       -0.2296
     39 H          63.2800   90.4269   12.0295 H       1  UNL1        0.1437
     40 H          64.0801   90.0783   13.4944 H       1  UNL1        0.1437
@<TRIPOS>BOND
     1    32    33    1
     2    33    34   ar
     3    34    35   ar
     4    35    31    1
     5    31    25    1
     6    25    26    1
     7    26    27    1
     8    27    28    1
     9    28     1    1
    10     1     2    2
    11     1     3   am
    12     3     4    1
    13     4     5    1
    14     5     6    1
    15     6     9    1
    16     9    10   ar
    17    10    11    2
    18    10    12   ar
    19    12    20    1
    20    20    21    1
    21    21    22    1
    22    21    23    1
    23    21    24    1
    24    12    13   ar
    25    13    14   ar
    26    14    15   ar
    27    15    16    1
    28    15    17   ar
    29    17    18   ar
    30    18    19   ar
    31     6     7    1
    32     7     8    1
    33    28    29    1
    34    29    30    1
    35    35    36   ar
    36    36    37   ar
    37    37    38   ar
    38    38    33   ar
    39    30    25    1
    40     8     3    1
    41    19     9   ar
    42    19    13   ar
    43    32    39    1
    44    32    40    1
@<TRIPOS>MOLECULE
*****
 40 44 0 0 0
SMALL
GASTEIGER

@<TRIPOS>ATOM
      1 C          58.6674   90.4516    5.9365 C.2     1  UNL1        0.2252
      2 O          57.1945   90.6892    6.0916 O.2     1  UNL1       -0.2749
      3 N          59.4243   91.1302    4.8336 N.am    1  UNL1       -0.2794
      4 C          58.7084   92.0463    3.8858 C.3     1  UNL1        0.0953
      5 C          59.4654   92.7248    2.7828 C.3     1  UNL1        0.0442
      6 C          60.9384   92.4873    2.6277 C.3     1  UNL1        0.0933
      7 C          61.6543   91.5713    3.5754 C.3     1  UNL1        0.0442
      8 C          60.8973   90.8927    4.6784 C.3     1  UNL1        0.0953
      9 N          61.6954   93.1659    1.5247 N.ar    1  UNL1       -0.2817
     10 C          61.4036   93.0556    0.0575 C.ar    1  UNL1        0.3317
     11 O          60.3037   92.2473   -0.5644 O.2     1  UNL1       -0.2463
     12 N          62.4050   93.8954   -0.6786 N.ar    1  UNL1       -0.2713
     13 C          63.3156   94.5249    0.3336 C.ar    1  UNL1        0.0822
     14 C          64.4875   95.4503    0.1913 C.ar    1  UNL1        0.0484
     15 C          65.2208   95.9248    1.4107 C.ar    1  UNL1        0.1417
     16 F          66.3927   96.8503    1.2684 F       1  UNL1       -0.2041
     17 C          64.7822   95.4739    2.7725 C.ar    1  UNL1        0.0312
     18 C          63.6104   94.5485    2.9148 C.ar    1  UNL1        0.0211
     19 C          62.8771   94.0740    1.6954 C.ar    1  UNL1        0.0798
     20 C          62.4822   94.0745   -2.1659 C.3     1  UNL1        0.2135
     21 C          63.2780   93.1120   -2.9969 C.3     1  UNL1        0.4184
     22 F          64.0738   92.1496   -3.8278 F       1  UNL1       -0.1679
     23 F          62.3556   93.3498   -4.1556 F       1  UNL1       -0.1679
     24 F          64.2004   92.8743   -1.8382 F       1  UNL1       -0.1679
     25 N          60.8151   87.7035    8.7799 N.3     1  UNL1       -0.2689
     26 C          60.8589   89.1876    8.9941 C.3     1  UNL1        0.0729
     27 C          60.1430   90.1036    8.0463 C.3     1  UNL1        0.0264
     28 C          59.3833   89.5356    6.8843 C.3     1  UNL1        0.0795
     29 C          59.3395   88.0516    6.6701 C.3     1  UNL1        0.0264
     30 C          60.0554   87.1356    7.6178 C.3     1  UNL1        0.0729
     31 C          61.5311   86.7875    9.7276 C.3     1  UNL1        0.0993
     32 N          63.2129   90.8822   12.4488 N.pl3   1  UNL1       -0.3426
     33 C          63.0739   89.3972   12.2885 C.ar    1  UNL1        0.1251
     34 C          62.3720   88.8348   11.0882 C.ar    1  UNL1        0.0310
     35 C          62.2330   87.3498   10.9280 C.ar    1  UNL1       -0.0018
     36 C          62.7959   86.4273   11.9683 C.ar    1  UNL1        0.0179
     37 C          63.4978   86.9898   13.1686 C.ar    1  UNL1        0.1000
     38 N          63.6368   88.4748   13.3288 N.ar    1  UNL1       -0.2296
     39 H          62.8434   91.4877   11.7660 H       1  UNL1        0.1437
     40 H          63.6736   91.2513   13.2366 H       1  UNL1        0.1437
@<TRIPOS>BOND
     1    32    33    1
     2    33    34   ar
     3    34    35   ar
     4    35    31    1
     5    31    25    1
     6    25    26    1
     7    26    27    1
     8    27    28    1
     9    28     1    1
    10     1     2    2
    11     1     3   am
    12     3     4    1
    13     4     5    1
    14     5     6    1
    15     6     9    1
    16     9    10   ar
    17    10    11    2
    18    10    12   ar
    19    12    20    1
    20    20    21    1
    21    21    22    1
    22    21    23    1
    23    21    24    1
    24    12    13   ar
    25    13    14   ar
    26    14    15   ar
    27    15    16    1
    28    15    17   ar
    29    17    18   ar
    30    18    19   ar
    31     6     7    1
    32     7     8    1
    33    28    29    1
    34    29    30    1
    35    35    36   ar
    36    36    37   ar
    37    37    38   ar
    38    38    33   ar
    39    30    25    1
    40     8     3    1
    41    19     9   ar
    42    19    13   ar
    43    32    39    1
    44    32    40    1
