@<TRIPOS>MOLECULE
*****
 34 38 0 0 0
SMALL
GASTEIGER

@<TRIPOS>ATOM
      1 C          62.7724   87.2961   11.8408 C.2     1  UNL1        0.2506
      2 O          63.4324   87.4188   13.1822 O.2     1  UNL1       -0.2699
      3 N          61.9802   88.4432   11.2871 N.am    1  UNL1       -0.2723
      4 C          61.3202   88.3206    9.9457 C.3     1  UNL1        0.1257
      5 C          60.5280   89.4677    9.3919 C.3     1  UNL1        0.1637
      6 O          60.3959   90.7374   10.1795 O.3     1  UNL1       -0.3502
      7 C          61.0559   90.8600   11.5209 C.3     1  UNL1        0.1622
      8 C          61.8481   89.7130   12.0747 C.3     1  UNL1        0.1097
      9 C          62.8124   84.8167    7.2746 C.3     1  UNL1        0.0310
     10 C          62.9246   84.7867    8.7701 C.ar    1  UNL1       -0.0216
     11 C          63.1689   83.4870    9.4779 C.ar    1  UNL1       -0.0026
     12 C          63.2811   83.4570   10.9734 C.ar    1  UNL1        0.0207
     13 C          63.1489   84.7267   11.7611 C.ar    1  UNL1        0.1072
     14 C          62.9046   86.0264   11.0532 C.ar    1  UNL1        0.0726
     15 C          62.7924   86.0563    9.5577 C.ar    1  UNL1        0.0018
     16 N          63.2611   84.6967   13.2566 N.ar    1  UNL1       -0.1477
     17 N          64.5371   84.6851   14.0450 N.ar    1  UNL1       -0.1447
     18 C          64.1816   84.6543   15.5019 C.ar    1  UNL1        0.1446
     19 C          62.6858   84.6468   15.6140 C.ar    1  UNL1        0.1446
     20 N          62.1169   84.6731   14.2263 N.ar    1  UNL1       -0.1447
     21 C          62.5081   89.8356   13.4161 C.3     1  UNL1        0.0510
     22 C          63.7288   90.6925   13.5758 C.ar    1  UNL1        0.0071
     23 C          64.3109   91.3975   12.3868 C.ar    1  UNL1        0.0011
     24 C          65.5317   92.2545   12.5464 C.ar    1  UNL1        0.0356
     25 C          66.1703   92.4063   13.8952 C.ar    1  UNL1        0.0053
     26 C          65.5880   91.7012   15.0843 C.ar    1  UNL1        0.0294
     27 C          64.3673   90.8443   14.9246 C.ar    1  UNL1        0.1362
     28 F          63.7851   90.1393   16.1137 F       1  UNL1       -0.2045
     29 C          66.1139   92.9595   11.3574 C.ar    1  UNL1        0.1622
     30 N          65.6197   94.3242   10.9785 N.ar    1  UNL1       -0.2250
     31 C          66.2019   95.0292    9.7894 C.ar    1  UNL1        0.1022
     32 C          67.2783   94.3696    8.9792 C.ar    1  UNL1        0.0414
     33 C          67.7725   93.0050    9.3581 C.ar    1  UNL1        0.1022
     34 N          67.1902   92.2999   10.5472 N.ar    1  UNL1       -0.2250
@<TRIPOS>BOND
     1     9    10    1
     2    10    11   ar
     3    11    12   ar
     4    12    13   ar
     5    13    16    1
     6    16    17   ar
     7    17    18   ar
     8    18    19   ar
     9    19    20   ar
    10    13    14   ar
    11    14     1    1
    12     1     2    2
    13     1     3   am
    14     3     4    1
    15     4     5    1
    16     5     6    1
    17     6     7    1
    18     7     8    1
    19     8    21    1
    20    21    22    1
    21    22    23   ar
    22    23    24   ar
    23    24    29    1
    24    29    30   ar
    25    30    31   ar
    26    31    32   ar
    27    32    33   ar
    28    33    34   ar
    29    24    25   ar
    30    25    26   ar
    31    26    27   ar
    32    27    28    1
    33    14    15   ar
    34    15    10   ar
    35    20    16   ar
    36     8     3    1
    37    27    22   ar
    38    34    29   ar
@<TRIPOS>MOLECULE
*****
 34 38 0 0 0
SMALL
GASTEIGER

@<TRIPOS>ATOM
      1 C          62.8970   86.4739   12.3584 C.2     1  UNL1        0.2506
      2 O          63.3984   87.4100   13.4178 O.2     1  UNL1       -0.2699
      3 N          61.9723   86.9767   11.2897 N.am    1  UNL1       -0.2723
      4 C          61.4709   86.0405   10.2304 C.3     1  UNL1        0.1257
      5 C          60.5462   86.5434    9.1617 C.3     1  UNL1        0.1637
      6 O          60.1229   87.9824    9.1524 O.3     1  UNL1       -0.3502
      7 C          60.6243   88.9186   10.2117 C.3     1  UNL1        0.1622
      8 C          61.5489   88.4157   11.2804 C.3     1  UNL1        0.1097
      9 C          64.3371   82.1902    9.7940 C.3     1  UNL1        0.0310
     10 C          64.0404   82.8930   11.0855 C.ar    1  UNL1       -0.0216
     11 C          64.1670   82.1569   12.3863 C.ar    1  UNL1       -0.0026
     12 C          63.8703   82.8598   13.6778 C.ar    1  UNL1        0.0207
     13 C          63.4470   84.2987   13.6685 C.ar    1  UNL1        0.1072
     14 C          63.3203   85.0348   12.3677 C.ar    1  UNL1        0.0726
     15 C          63.6171   84.3320   11.0762 C.ar    1  UNL1        0.0018
     16 N          63.1503   85.0016   14.9600 N.ar    1  UNL1       -0.1477
     17 N          64.1210   85.8137   15.7651 N.ar    1  UNL1       -0.1447
     18 C          63.4014   86.3297   16.9758 C.ar    1  UNL1        0.1446
     19 C          61.9859   85.8366   16.9190 C.ar    1  UNL1        0.1446
     20 N          61.8307   85.0157   15.6732 N.ar    1  UNL1       -0.1447
     21 C          62.0503   89.3519   12.3398 C.3     1  UNL1        0.0510
     22 C          63.1330   90.3387   12.0173 C.ar    1  UNL1        0.0071
     23 C          64.1340   90.7231   13.0662 C.ar    1  UNL1        0.0011
     24 C          65.2167   91.7100   12.7438 C.ar    1  UNL1        0.0356
     25 C          65.2984   92.3123   11.3725 C.ar    1  UNL1        0.0053
     26 C          64.2974   91.9278   10.3236 C.ar    1  UNL1        0.0294
     27 C          63.2147   90.9410   10.6460 C.ar    1  UNL1        0.1362
     28 F          62.2137   90.5565    9.5971 F       1  UNL1       -0.2045
     29 C          66.2177   92.0944   13.7927 C.ar    1  UNL1        0.1622
     30 N          65.7580   92.4330   15.1798 N.ar    1  UNL1       -0.2250
     31 C          66.7590   92.8175   16.2287 C.ar    1  UNL1        0.1022
     32 C          68.2197   92.8634   15.8905 C.ar    1  UNL1        0.0414
     33 C          68.6794   92.5248   14.5033 C.ar    1  UNL1        0.1022
     34 N          67.6783   92.1403   13.4544 N.ar    1  UNL1       -0.2250
@<TRIPOS>BOND
     1     9    10    1
     2    10    11   ar
     3    11    12   ar
     4    12    13   ar
     5    13    16    1
     6    16    17   ar
     7    17    18   ar
     8    18    19   ar
     9    19    20   ar
    10    13    14   ar
    11    14     1    1
    12     1     2    2
    13     1     3   am
    14     3     4    1
    15     4     5    1
    16     5     6    1
    17     6     7    1
    18     7     8    1
    19     8    21    1
    20    21    22    1
    21    22    23   ar
    22    23    24   ar
    23    24    29    1
    24    29    30   ar
    25    30    31   ar
    26    31    32   ar
    27    32    33   ar
    28    33    34   ar
    29    24    25   ar
    30    25    26   ar
    31    26    27   ar
    32    27    28    1
    33    14    15   ar
    34    15    10   ar
    35    20    16   ar
    36     8     3    1
    37    27    22   ar
    38    34    29   ar
@<TRIPOS>MOLECULE
*****
 34 38 0 0 0
SMALL
GASTEIGER

@<TRIPOS>ATOM
      1 C          63.2444   86.9555   12.9880 C.2     1  UNL1        0.2506
      2 O          63.6527   87.6391   14.2592 O.2     1  UNL1       -0.2699
      3 N          62.7003   87.7603   11.8450 N.am    1  UNL1       -0.2723
      4 C          62.2920   87.0767   10.5738 C.3     1  UNL1        0.1257
      5 C          61.7478   87.8815    9.4309 C.3     1  UNL1        0.1637
      6 O          61.6120   89.3698    9.5592 O.3     1  UNL1       -0.3502
      7 C          62.0203   90.0534   10.8304 C.3     1  UNL1        0.1622
      8 C          62.5644   89.2486   11.9733 C.3     1  UNL1        0.1097
      9 C          64.0319   82.7457   10.0456 C.3     1  UNL1        0.0310
     10 C          63.7740   83.3623   11.3885 C.ar    1  UNL1       -0.0216
     11 C          63.6520   82.4906   12.6030 C.ar    1  UNL1       -0.0026
     12 C          63.3941   83.1072   13.9459 C.ar    1  UNL1        0.0207
     13 C          63.2582   84.5955   14.0742 C.ar    1  UNL1        0.1072
     14 C          63.3803   85.4672   12.8597 C.ar    1  UNL1        0.0726
     15 C          63.6382   84.8506   11.5168 C.ar    1  UNL1        0.0018
     16 N          63.0003   85.2120   15.4171 N.ar    1  UNL1       -0.1477
     17 N          61.6611   85.3621   16.0758 N.ar    1  UNL1       -0.1447
     18 C          61.8694   86.0296   17.4029 C.ar    1  UNL1        0.1446
     19 C          63.3375   86.2921   17.5643 C.ar    1  UNL1        0.1446
     20 N          64.0364   85.7868   16.3370 N.ar    1  UNL1       -0.1447
     21 C          62.9728   89.9322   13.2446 C.3     1  UNL1        0.0510
     22 C          64.2603   90.6994   13.3035 C.ar    1  UNL1        0.0071
     23 C          64.7118   91.4990   12.1174 C.ar    1  UNL1        0.0011
     24 C          65.9995   92.2662   12.1763 C.ar    1  UNL1        0.0356
     25 C          66.8356   92.2337   13.4212 C.ar    1  UNL1        0.0053
     26 C          66.3841   91.4340   14.6073 C.ar    1  UNL1        0.0294
     27 C          65.0965   90.6669   14.5484 C.ar    1  UNL1        0.1362
     28 F          64.6451   89.8672   15.7344 F       1  UNL1       -0.2045
     29 C          66.4509   93.0659   10.9903 C.ar    1  UNL1        0.1622
     30 N          65.8388   94.4070   10.7129 N.ar    1  UNL1       -0.2250
     31 C          66.2903   95.2066    9.5269 C.ar    1  UNL1        0.1022
     32 C          67.3538   94.6652    8.6181 C.ar    1  UNL1        0.0414
     33 C          67.9659   93.3241    8.8955 C.ar    1  UNL1        0.1022
     34 N          67.5144   92.5245   10.0816 N.ar    1  UNL1       -0.2250
@<TRIPOS>BOND
     1     9    10    1
     2    10    11   ar
     3    11    12   ar
     4    12    13   ar
     5    13    16    1
     6    16    17   ar
     7    17    18   ar
     8    18    19   ar
     9    19    20   ar
    10    13    14   ar
    11    14     1    1
    12     1     2    2
    13     1     3   am
    14     3     4    1
    15     4     5    1
    16     5     6    1
    17     6     7    1
    18     7     8    1
    19     8    21    1
    20    21    22    1
    21    22    23   ar
    22    23    24   ar
    23    24    29    1
    24    29    30   ar
    25    30    31   ar
    26    31    32   ar
    27    32    33   ar
    28    33    34   ar
    29    24    25   ar
    30    25    26   ar
    31    26    27   ar
    32    27    28    1
    33    14    15   ar
    34    15    10   ar
    35    20    16   ar
    36     8     3    1
    37    27    22   ar
    38    34    29   ar
@<TRIPOS>MOLECULE
*****
 34 38 0 0 0
SMALL
GASTEIGER

@<TRIPOS>ATOM
      1 C          62.6752   87.3666   11.6260 C.2     1  UNL1        0.2506
      2 O          63.6529   87.8585   12.6517 O.2     1  UNL1       -0.2699
      3 N          61.5017   88.2172   11.2398 N.am    1  UNL1       -0.2723
      4 C          60.5240   87.7252   10.2141 C.3     1  UNL1        0.1257
      5 C          59.3504   88.5760    9.8279 C.3     1  UNL1        0.1637
      6 O          59.1545   89.9185   10.4675 O.3     1  UNL1       -0.3502
      7 C          60.1322   90.4105   11.4932 C.3     1  UNL1        0.1622
      8 C          61.3058   89.5598   11.8794 C.3     1  UNL1        0.1097
      9 C          62.8924   84.4004    7.3651 C.3     1  UNL1        0.0310
     10 C          62.9797   84.5409    8.8559 C.ar    1  UNL1       -0.0216
     11 C          63.2629   83.3388    9.7072 C.ar    1  UNL1       -0.0026
     12 C          63.3502   83.4792   11.1981 C.ar    1  UNL1        0.0207
     13 C          63.1543   84.8218   11.8377 C.ar    1  UNL1        0.1072
     14 C          62.8711   86.0239   10.9864 C.ar    1  UNL1        0.0726
     15 C          62.7839   85.8835    9.4955 C.ar    1  UNL1        0.0018
     16 N          63.2416   84.9622   13.3285 N.ar    1  UNL1       -0.1477
     17 N          64.4809   85.2750   14.1136 N.ar    1  UNL1       -0.1447
     18 C          64.1102   85.3207   15.5663 C.ar    1  UNL1        0.1446
     19 C          62.6418   85.0361   15.6791 C.ar    1  UNL1        0.1446
     20 N          62.1050   84.8146   14.2961 N.ar    1  UNL1       -0.1447
     21 C          62.2835   90.0518   12.9051 C.3     1  UNL1        0.0510
     22 C          63.4667   90.8705   12.4814 C.ar    1  UNL1        0.0071
     23 C          64.5514   91.1873   13.4678 C.ar    1  UNL1        0.0011
     24 C          65.7348   92.0060   13.0441 C.ar    1  UNL1        0.0356
     25 C          65.8333   92.5080   11.6340 C.ar    1  UNL1        0.0053
     26 C          64.7485   92.1911   10.6476 C.ar    1  UNL1        0.0294
     27 C          63.5653   91.3724   11.0713 C.ar    1  UNL1        0.1362
     28 F          62.4806   91.0556   10.0849 F       1  UNL1       -0.2045
     29 C          66.8195   92.3228   14.0305 C.ar    1  UNL1        0.1622
     30 N          66.4651   92.8097   15.4044 N.ar    1  UNL1       -0.2250
     31 C          67.5498   93.1264   16.3908 C.ar    1  UNL1        0.1022
     32 C          68.9890   92.9564   16.0033 C.ar    1  UNL1        0.0414
     33 C          69.3433   92.4696   14.6295 C.ar    1  UNL1        0.1022
     34 N          68.2585   92.1528   13.6431 N.ar    1  UNL1       -0.2250
@<TRIPOS>BOND
     1     9    10    1
     2    10    11   ar
     3    11    12   ar
     4    12    13   ar
     5    13    16    1
     6    16    17   ar
     7    17    18   ar
     8    18    19   ar
     9    19    20   ar
    10    13    14   ar
    11    14     1    1
    12     1     2    2
    13     1     3   am
    14     3     4    1
    15     4     5    1
    16     5     6    1
    17     6     7    1
    18     7     8    1
    19     8    21    1
    20    21    22    1
    21    22    23   ar
    22    23    24   ar
    23    24    29    1
    24    29    30   ar
    25    30    31   ar
    26    31    32   ar
    27    32    33   ar
    28    33    34   ar
    29    24    25   ar
    30    25    26   ar
    31    26    27   ar
    32    27    28    1
    33    14    15   ar
    34    15    10   ar
    35    20    16   ar
    36     8     3    1
    37    27    22   ar
    38    34    29   ar
@<TRIPOS>MOLECULE
*****
 34 38 0 0 0
SMALL
GASTEIGER

@<TRIPOS>ATOM
      1 C          62.5753   88.6781   11.6829 C.2     1  UNL1        0.2506
      2 O          62.4142   90.1694   11.6774 O.2     1  UNL1       -0.2699
      3 N          63.3087   88.0071   12.8062 N.am    1  UNL1       -0.2723
      4 C          63.4699   86.5158   12.8117 C.3     1  UNL1        0.1257
      5 C          64.2034   85.8448   13.9351 C.3     1  UNL1        0.1637
      6 O          64.7757   86.6651   15.0528 O.3     1  UNL1       -0.3502
      7 C          64.6145   88.1565   15.0473 C.3     1  UNL1        0.1622
      8 C          63.8811   88.8274   13.9240 C.3     1  UNL1        0.1097
      9 C          63.1628   85.0648    7.9951 C.3     1  UNL1        0.0310
     10 C          62.2967   86.0511    8.7212 C.ar    1  UNL1       -0.0216
     11 C          60.8583   86.2171    8.3295 C.ar    1  UNL1       -0.0026
     12 C          59.9923   87.2034    9.0555 C.ar    1  UNL1        0.0207
     13 C          60.5646   88.0237   10.1733 C.ar    1  UNL1        0.1072
     14 C          62.0029   87.8577   10.5650 C.ar    1  UNL1        0.0726
     15 C          62.8690   86.8714    9.8390 C.ar    1  UNL1        0.0018
     16 N          59.6985   89.0100   10.8994 N.ar    1  UNL1       -0.1477
     17 N          58.8819   88.7307   12.1262 N.ar    1  UNL1       -0.1447
     18 C          58.1756   89.9968   12.5112 C.ar    1  UNL1        0.1446
     19 C          58.5557   91.0586   11.5222 C.ar    1  UNL1        0.1446
     20 N          59.4969   90.4487   10.5261 N.ar    1  UNL1       -0.1447
     21 C          63.7200   90.3187   13.9185 C.3     1  UNL1        0.0510
     22 C          64.9304   91.2038   13.8812 C.ar    1  UNL1        0.0071
     23 C          65.5033   91.6357   12.5639 C.ar    1  UNL1        0.0011
     24 C          66.7138   92.5208   12.5265 C.ar    1  UNL1        0.0356
     25 C          67.3515   92.9738   13.8064 C.ar    1  UNL1        0.0053
     26 C          66.7785   92.5419   15.1237 C.ar    1  UNL1        0.0294
     27 C          65.5681   91.6568   15.1611 C.ar    1  UNL1        0.1362
     28 F          64.9952   91.2249   16.4783 F       1  UNL1       -0.2045
     29 C          67.2867   92.9527   11.2092 C.ar    1  UNL1        0.1622
     30 N          66.9568   94.3073   10.6559 N.ar    1  UNL1       -0.2250
     31 C          67.5297   94.7393    9.3387 C.ar    1  UNL1        0.1022
     32 C          68.4325   93.8165    8.5746 C.ar    1  UNL1        0.0414
     33 C          68.7623   92.4619    9.1279 C.ar    1  UNL1        0.1022
     34 N          68.1894   92.0300   10.4453 N.ar    1  UNL1       -0.2250
@<TRIPOS>BOND
     1     9    10    1
     2    10    11   ar
     3    11    12   ar
     4    12    13   ar
     5    13    16    1
     6    16    17   ar
     7    17    18   ar
     8    18    19   ar
     9    19    20   ar
    10    13    14   ar
    11    14     1    1
    12     1     2    2
    13     1     3   am
    14     3     4    1
    15     4     5    1
    16     5     6    1
    17     6     7    1
    18     7     8    1
    19     8    21    1
    20    21    22    1
    21    22    23   ar
    22    23    24   ar
    23    24    29    1
    24    29    30   ar
    25    30    31   ar
    26    31    32   ar
    27    32    33   ar
    28    33    34   ar
    29    24    25   ar
    30    25    26   ar
    31    26    27   ar
    32    27    28    1
    33    14    15   ar
    34    15    10   ar
    35    20    16   ar
    36     8     3    1
    37    27    22   ar
    38    34    29   ar
@<TRIPOS>MOLECULE
*****
 34 38 0 0 0
SMALL
GASTEIGER

@<TRIPOS>ATOM
      1 C          62.3569   84.6503   12.2310 C.2     1  UNL1        0.2506
      2 O          61.7580   85.6917   13.1293 O.2     1  UNL1       -0.2699
      3 N          62.6220   84.9663   10.7889 N.am    1  UNL1       -0.2723
      4 C          63.2208   83.9249    9.8906 C.3     1  UNL1        0.1257
      5 C          63.4859   84.2410    8.4484 C.3     1  UNL1        0.1637
      6 O          63.1522   85.5985    7.9045 O.3     1  UNL1       -0.3502
      7 C          62.5533   86.6399    8.8028 C.3     1  UNL1        0.1622
      8 C          62.2882   86.3238   10.2449 C.3     1  UNL1        0.1097
      9 C          62.7170   79.5071   11.5840 C.3     1  UNL1        0.0310
     10 C          62.8707   80.7212   12.4514 C.ar    1  UNL1       -0.0216
     11 C          63.3581   80.5778   13.8627 C.ar    1  UNL1       -0.0026
     12 C          63.5117   81.7919   14.7302 C.ar    1  UNL1        0.0207
     13 C          63.1780   83.1494   14.1863 C.ar    1  UNL1        0.1072
     14 C          62.6906   83.2927   12.7750 C.ar    1  UNL1        0.0726
     15 C          62.5370   82.0787   11.9076 C.ar    1  UNL1        0.0018
     16 N          63.3317   84.3634   15.0537 N.ar    1  UNL1       -0.1477
     17 N          64.4501   85.3606   14.9846 N.ar    1  UNL1       -0.1447
     18 C          64.2035   86.4070   16.0307 C.ar    1  UNL1        0.1446
     19 C          62.9327   86.0565   16.7464 C.ar    1  UNL1        0.1446
     20 N          62.3939   84.7935   16.1425 N.ar    1  UNL1       -0.1447
     21 C          61.6894   87.3653   11.1432 C.3     1  UNL1        0.0510
     22 C          62.2337   88.7630   11.1380 C.ar    1  UNL1        0.0071
     23 C          63.0454   89.2559   12.2991 C.ar    1  UNL1        0.0011
     24 C          63.5898   90.6537   12.2940 C.ar    1  UNL1        0.0356
     25 C          63.3224   91.5584   11.1278 C.ar    1  UNL1        0.0053
     26 C          62.5106   91.0654    9.9667 C.ar    1  UNL1        0.0294
     27 C          61.9663   89.6677    9.9718 C.ar    1  UNL1        0.1362
     28 F          61.1546   89.1747    8.8108 F       1  UNL1       -0.2045
     29 C          64.4015   91.1467   13.4550 C.ar    1  UNL1        0.1622
     30 N          63.7849   91.2294   14.8199 N.ar    1  UNL1       -0.2250
     31 C          64.5966   91.7223   15.9810 C.ar    1  UNL1        0.1022
     32 C          66.0250   92.1327   15.7771 C.ar    1  UNL1        0.0414
     33 C          66.6415   92.0500   14.4122 C.ar    1  UNL1        0.1022
     34 N          65.8298   91.5570   13.2511 N.ar    1  UNL1       -0.2250
@<TRIPOS>BOND
     1     9    10    1
     2    10    11   ar
     3    11    12   ar
     4    12    13   ar
     5    13    16    1
     6    16    17   ar
     7    17    18   ar
     8    18    19   ar
     9    19    20   ar
    10    13    14   ar
    11    14     1    1
    12     1     2    2
    13     1     3   am
    14     3     4    1
    15     4     5    1
    16     5     6    1
    17     6     7    1
    18     7     8    1
    19     8    21    1
    20    21    22    1
    21    22    23   ar
    22    23    24   ar
    23    24    29    1
    24    29    30   ar
    25    30    31   ar
    26    31    32   ar
    27    32    33   ar
    28    33    34   ar
    29    24    25   ar
    30    25    26   ar
    31    26    27   ar
    32    27    28    1
    33    14    15   ar
    34    15    10   ar
    35    20    16   ar
    36     8     3    1
    37    27    22   ar
    38    34    29   ar
@<TRIPOS>MOLECULE
*****
 34 38 0 0 0
SMALL
GASTEIGER

@<TRIPOS>ATOM
      1 C          61.9796   88.7204   10.1449 C.2     1  UNL1        0.2506
      2 O          63.4418   88.8590    9.8403 O.2     1  UNL1       -0.2699
      3 N          61.4597   89.0785   11.5055 N.am    1  UNL1       -0.2723
      4 C          59.9975   88.9399   11.8101 C.3     1  UNL1        0.1257
      5 C          59.4776   89.2980   13.1709 C.3     1  UNL1        0.1637
      6 O          60.4199   89.7945   14.2270 O.3     1  UNL1       -0.3502
      7 C          61.8822   89.9331   13.9224 C.3     1  UNL1        0.1622
      8 C          62.4020   89.5750   12.5617 C.3     1  UNL1        0.1097
      9 C          58.4433   89.6761    6.4596 C.3     1  UNL1        0.0310
     10 C          59.2691   88.7017    7.2461 C.ar    1  UNL1       -0.0216
     11 C          59.1527   87.2308    6.9763 C.ar    1  UNL1       -0.0026
     12 C          59.9785   86.2564    7.7628 C.ar    1  UNL1        0.0207
     13 C          60.9208   86.7529    8.8189 C.ar    1  UNL1        0.1072
     14 C          61.0373   88.2238    9.0887 C.ar    1  UNL1        0.0726
     15 C          60.2114   89.1982    8.3022 C.ar    1  UNL1        0.0018
     16 N          61.7467   85.7785    9.6054 N.ar    1  UNL1       -0.1477
     17 N          62.9009   84.9765    9.0814 N.ar    1  UNL1       -0.1447
     18 C          63.4309   84.1374   10.2061 C.ar    1  UNL1        0.1446
     19 C          62.6042   84.4207   11.4252 C.ar    1  UNL1        0.1446
     20 N          61.5634   85.4350   11.0540 N.ar    1  UNL1       -0.1447
     21 C          63.8642   89.7136   12.2572 C.3     1  UNL1        0.0510
     22 C          64.6316   90.8903   12.7828 C.ar    1  UNL1        0.0071
     23 C          65.0083   92.0123   11.8613 C.ar    1  UNL1        0.0011
     24 C          65.7758   93.1891   12.3869 C.ar    1  UNL1        0.0356
     25 C          66.1664   93.2439   13.8341 C.ar    1  UNL1        0.0053
     26 C          65.7897   92.1219   14.7557 C.ar    1  UNL1        0.0294
     27 C          65.0223   90.9451   14.2300 C.ar    1  UNL1        0.1362
     28 F          64.6456   89.8232   15.1516 F       1  UNL1       -0.2045
     29 C          66.1525   94.3110   11.4653 C.ar    1  UNL1        0.1622
     30 N          66.0876   95.7304   11.9461 N.ar    1  UNL1       -0.2250
     31 C          66.4643   96.8523   11.0245 C.ar    1  UNL1        0.1022
     32 C          66.9060   96.5549    9.6222 C.ar    1  UNL1        0.0414
     33 C          66.9708   95.1355    9.1414 C.ar    1  UNL1        0.1022
     34 N          66.5941   94.0136   10.0631 N.ar    1  UNL1       -0.2250
@<TRIPOS>BOND
     1     9    10    1
     2    10    11   ar
     3    11    12   ar
     4    12    13   ar
     5    13    16    1
     6    16    17   ar
     7    17    18   ar
     8    18    19   ar
     9    19    20   ar
    10    13    14   ar
    11    14     1    1
    12     1     2    2
    13     1     3   am
    14     3     4    1
    15     4     5    1
    16     5     6    1
    17     6     7    1
    18     7     8    1
    19     8    21    1
    20    21    22    1
    21    22    23   ar
    22    23    24   ar
    23    24    29    1
    24    29    30   ar
    25    30    31   ar
    26    31    32   ar
    27    32    33   ar
    28    33    34   ar
    29    24    25   ar
    30    25    26   ar
    31    26    27   ar
    32    27    28    1
    33    14    15   ar
    34    15    10   ar
    35    20    16   ar
    36     8     3    1
    37    27    22   ar
    38    34    29   ar
@<TRIPOS>MOLECULE
*****
 34 38 0 0 0
SMALL
GASTEIGER

@<TRIPOS>ATOM
      1 C          56.5508   95.4324   -4.3984 C.2     1  UNL1        0.2506
      2 O          57.6664   96.3892   -4.0984 O.2     1  UNL1       -0.2699
      3 N          56.7567   94.3281   -5.3924 N.am    1  UNL1       -0.2723
      4 C          55.6411   93.3713   -5.6924 C.3     1  UNL1        0.1257
      5 C          55.8471   92.2670   -6.6864 C.3     1  UNL1        0.1637
      6 O          57.1687   92.1194   -7.3804 O.3     1  UNL1       -0.3502
      7 C          58.2843   93.0762   -7.0804 C.3     1  UNL1        0.1622
      8 C          58.0783   94.1805   -6.0864 C.3     1  UNL1        0.1097
      9 C          51.5543   96.8560   -4.4897 C.3     1  UNL1        0.0310
     10 C          52.7309   96.2918   -3.7500 C.ar    1  UNL1       -0.0216
     11 C          52.5860   95.8752   -2.3164 C.ar    1  UNL1       -0.0026
     12 C          53.7627   95.3110   -1.5767 C.ar    1  UNL1        0.0207
     13 C          55.0843   95.1634   -2.2707 C.ar    1  UNL1        0.1072
     14 C          55.2291   95.5800   -3.7043 C.ar    1  UNL1        0.0726
     15 C          54.0525   96.1442   -4.4440 C.ar    1  UNL1        0.0018
     16 N          56.2609   94.5992   -1.5310 N.ar    1  UNL1       -0.1477
     17 N          57.3975   95.3870   -0.9501 N.ar    1  UNL1       -0.1447
     18 C          58.3466   94.4228   -0.3024 C.ar    1  UNL1        0.1446
     19 C          57.7967   93.0390   -0.4831 C.ar    1  UNL1        0.1446
     20 N          56.5077   93.1480   -1.2424 N.ar    1  UNL1       -0.1447
     21 C          59.1939   95.1373   -5.7864 C.3     1  UNL1        0.0510
     22 C          60.4396   94.6482   -5.1090 C.ar    1  UNL1        0.0071
     23 C          60.4679   94.4850   -3.6182 C.ar    1  UNL1        0.0011
     24 C          61.7136   93.9959   -2.9407 C.ar    1  UNL1        0.0356
     25 C          62.9311   93.6700   -3.7540 C.ar    1  UNL1        0.0053
     26 C          62.9028   93.8332   -5.2449 C.ar    1  UNL1        0.0294
     27 C          61.6571   94.3223   -5.9223 C.ar    1  UNL1        0.1362
     28 F          61.6289   94.4855   -7.4131 F       1  UNL1       -0.2045
     29 C          61.7418   93.8327   -1.4499 C.ar    1  UNL1        0.1622
     30 N          62.1481   94.9830   -0.5770 N.ar    1  UNL1       -0.2250
     31 C          62.1763   94.8198    0.9138 C.ar    1  UNL1        0.1022
     32 C          61.7983   93.5063    1.5318 C.ar    1  UNL1        0.0414
     33 C          61.3921   92.3560    0.6590 C.ar    1  UNL1        0.1022
     34 N          61.3638   92.5193   -0.8319 N.ar    1  UNL1       -0.2250
@<TRIPOS>BOND
     1     9    10    1
     2    10    11   ar
     3    11    12   ar
     4    12    13   ar
     5    13    16    1
     6    16    17   ar
     7    17    18   ar
     8    18    19   ar
     9    19    20   ar
    10    13    14   ar
    11    14     1    1
    12     1     2    2
    13     1     3   am
    14     3     4    1
    15     4     5    1
    16     5     6    1
    17     6     7    1
    18     7     8    1
    19     8    21    1
    20    21    22    1
    21    22    23   ar
    22    23    24   ar
    23    24    29    1
    24    29    30   ar
    25    30    31   ar
    26    31    32   ar
    27    32    33   ar
    28    33    34   ar
    29    24    25   ar
    30    25    26   ar
    31    26    27   ar
    32    27    28    1
    33    14    15   ar
    34    15    10   ar
    35    20    16   ar
    36     8     3    1
    37    27    22   ar
    38    34    29   ar
