@<TRIPOS>MOLECULE
*****
 37 40 0 0 0
SMALL
GASTEIGER

@<TRIPOS>ATOM
      1 N          63.0678   90.8307   11.6952 N.am    1  UNL1       -0.2438
      2 C          63.5897   91.4693   10.4423 C.3     1  UNL1        0.1009
      3 C          64.7754   92.3859   10.5054 C.3     1  UNL1        0.0662
      4 C          65.4393   92.6638   11.8215 C.3     1  UNL1        0.1600
      5 O          64.9174   92.0252   13.0745 O.3     1  UNL1       -0.4374
      6 C          63.7317   91.1087   13.0113 C.2     1  UNL1        0.4051
      7 O          63.2098   90.4701   14.2642 O.2     1  UNL1       -0.2262
      8 C          66.2949   93.4998   10.9164 C.ar    1  UNL1        0.0138
      9 C          66.2198   94.9963   10.9847 C.ar    1  UNL1       -0.0010
     10 C          67.0754   95.8323   10.0796 C.ar    1  UNL1       -0.0002
     11 C          68.0062   95.1716    9.1064 C.ar    1  UNL1       -0.0000
     12 C          68.0814   93.6751    9.0381 C.ar    1  UNL1       -0.0002
     13 C          67.2257   92.8391    9.9432 C.ar    1  UNL1       -0.0010
     14 C          61.8820   89.9142   11.6321 C.3     1  UNL1        0.1010
     15 C          62.0838   88.4282   11.5958 C.ar    1  UNL1       -0.0042
     16 C          61.3239   87.5921   10.6092 C.ar    1  UNL1       -0.0027
     17 C          61.5257   86.1062   10.5730 C.ar    1  UNL1       -0.0002
     18 C          62.4874   85.4564   11.5233 C.ar    1  UNL1        0.0014
     19 C          63.2472   86.2926   12.5099 C.ar    1  UNL1       -0.0002
     20 C          63.0455   87.7785   12.5461 C.ar    1  UNL1       -0.0027
     21 C          62.6891   83.9705   11.4870 C.ar    1  UNL1        0.0175
     22 C          63.3477   83.3318   10.3004 C.ar    1  UNL1        0.0064
     23 C          63.5495   81.8458   10.2641 C.ar    1  UNL1        0.0608
     24 C          63.0926   80.9986   11.4145 C.ar    1  UNL1        0.2610
     25 O          63.2943   79.5127   11.3783 O.2     1  UNL1       -0.2670
     26 N          62.4339   81.6374   12.6012 N.ar    1  UNL1       -0.2942
     27 C          62.2322   83.1233   12.6375 C.ar    1  UNL1        0.0783
     28 C          61.9770   80.7902   13.7517 C.3     1  UNL1        0.1092
     29 C          60.5183   80.7112   14.0921 C.3     1  UNL1        0.0266
     30 C          59.3709   89.7530   12.2788 C.3     1  UNL1        0.0021
     31 C          60.4946   90.4836   11.6052 C.3     1  UNL1        0.0245
     32 C          66.4004   93.2321   12.8232 C.3     1  UNL1        0.0714
     33 C          67.0114   92.3423   13.8648 C.3     1  UNL1        0.0922
     34 C          66.2182   93.0424   14.9282 C.3     1  UNL1        0.0294
     35 C          67.8046   91.6423   12.8015 C.3     1  UNL1        0.0294
     36 O          67.6224   91.4526   14.9064 O.3     1  UNL1       -0.3866
     37 H          67.2704   91.6876   15.7792 H       1  UNL1        0.2102
@<TRIPOS>BOND
     1    30    31    1
     2    14    31    1
     3    14    15    1
     4    15    16   ar
     5    16    17   ar
     6    17    18   ar
     7    18    21    1
     8    21    22   ar
     9    22    23   ar
    10    23    24   ar
    11    24    25    2
    12    24    26   ar
    13    26    28    1
    14    28    29    1
    15    26    27   ar
    16    18    19   ar
    17    19    20   ar
    18    14     1    1
    19     1     2    1
    20     2     3    1
    21     3     4    1
    22     4    32    1
    23    32    33    1
    24    33    34    1
    25    33    35    1
    26    33    36    1
    27     4     8    1
    28     8     9   ar
    29     9    10   ar
    30    10    11   ar
    31    11    12   ar
    32    12    13   ar
    33     4     5    1
    34     5     6    1
    35     6     7    2
    36    20    15   ar
    37     6     1   am
    38    27    21   ar
    39    13     8   ar
    40    36    37    1
@<TRIPOS>MOLECULE
*****
 37 40 0 0 0
SMALL
GASTEIGER

@<TRIPOS>ATOM
      1 N          63.4135   90.4607   11.9940 N.am    1  UNL1       -0.2438
      2 C          64.0637   90.2725   13.3325 C.3     1  UNL1        0.1009
      3 C          65.2386   91.1200   13.7214 C.3     1  UNL1        0.0662
      4 C          65.7633   92.1558   12.7718 C.3     1  UNL1        0.1600
      5 O          65.1130   92.3440   11.4331 O.3     1  UNL1       -0.4374
      6 C          63.9381   91.4965   11.0442 C.2     1  UNL1        0.4051
      7 O          63.2879   91.6847    9.7057 O.2     1  UNL1       -0.2262
      8 C          66.7099   92.3508   13.9189 C.ar    1  UNL1        0.0138
      9 C          68.1839   92.1609   13.7155 C.ar    1  UNL1       -0.0010
     10 C          69.1306   92.3559   14.8626 C.ar    1  UNL1       -0.0002
     11 C          68.6032   92.7409   16.2130 C.ar    1  UNL1       -0.0000
     12 C          67.1292   92.9307   16.4164 C.ar    1  UNL1       -0.0002
     13 C          66.1825   92.7357   15.2693 C.ar    1  UNL1       -0.0010
     14 C          62.2386   89.6131   11.6051 C.3     1  UNL1        0.1010
     15 C          62.3663   88.1187   11.5832 C.ar    1  UNL1       -0.0042
     16 C          63.0983   87.4123   12.6855 C.ar    1  UNL1       -0.0027
     17 C          63.2261   85.9179   12.6636 C.ar    1  UNL1       -0.0002
     18 C          62.6218   85.1300   11.5393 C.ar    1  UNL1        0.0014
     19 C          61.8899   85.8363   10.4370 C.ar    1  UNL1       -0.0002
     20 C          61.7621   87.3307   10.4589 C.ar    1  UNL1       -0.0027
     21 C          62.7496   83.6355   11.5174 C.ar    1  UNL1        0.0175
     22 C          63.3812   82.9540   10.3399 C.ar    1  UNL1        0.0064
     23 C          63.5089   81.4595   10.3180 C.ar    1  UNL1        0.0608
     24 C          63.0052   80.6467   11.4736 C.ar    1  UNL1        0.2610
     25 O          63.1329   79.1524   11.4518 O.2     1  UNL1       -0.2670
     26 N          62.3736   81.3284   12.6512 N.ar    1  UNL1       -0.2942
     27 C          62.2459   82.8227   12.6731 C.ar    1  UNL1        0.0783
     28 C          61.8699   80.5156   13.8069 C.3     1  UNL1        0.1092
     29 C          60.4203   80.5723   14.1884 C.3     1  UNL1        0.0266
     30 C          59.6732   89.8538   11.9387 C.3     1  UNL1        0.0021
     31 C          60.9359   90.2599   11.2381 C.3     1  UNL1        0.0245
     32 C          66.6167   93.2593   12.2205 C.3     1  UNL1        0.0714
     33 C          66.5567   93.5955   10.7599 C.3     1  UNL1        0.0922
     34 C          67.3498   92.3622   10.4434 C.3     1  UNL1        0.0294
     35 C          65.7637   94.8288   11.0764 C.3     1  UNL1        0.0294
     36 O          66.4968   93.9317    9.2993 O.3     1  UNL1       -0.3866
     37 H          66.9673   93.2522    8.7916 H       1  UNL1        0.2102
@<TRIPOS>BOND
     1    30    31    1
     2    14    31    1
     3    14    15    1
     4    15    16   ar
     5    16    17   ar
     6    17    18   ar
     7    18    21    1
     8    21    22   ar
     9    22    23   ar
    10    23    24   ar
    11    24    25    2
    12    24    26   ar
    13    26    28    1
    14    28    29    1
    15    26    27   ar
    16    18    19   ar
    17    19    20   ar
    18    14     1    1
    19     1     2    1
    20     2     3    1
    21     3     4    1
    22     4    32    1
    23    32    33    1
    24    33    34    1
    25    33    35    1
    26    33    36    1
    27     4     8    1
    28     8     9   ar
    29     9    10   ar
    30    10    11   ar
    31    11    12   ar
    32    12    13   ar
    33     4     5    1
    34     5     6    1
    35     6     7    2
    36    20    15   ar
    37     6     1   am
    38    27    21   ar
    39    13     8   ar
    40    36    37    1
@<TRIPOS>MOLECULE
*****
 37 40 0 0 0
SMALL
GASTEIGER

@<TRIPOS>ATOM
      1 N          63.0714   90.8067   11.5510 N.am    1  UNL1       -0.2438
      2 C          63.6029   91.4921   10.3272 C.3     1  UNL1        0.1009
      3 C          64.7660   92.4326   10.4397 C.3     1  UNL1        0.0662
      4 C          65.3976   92.6877   11.7761 C.3     1  UNL1        0.1600
      5 O          64.8662   92.0022   13.0000 O.3     1  UNL1       -0.4374
      6 C          63.7031   91.0617   12.8874 C.2     1  UNL1        0.4051
      7 O          63.1717   90.3763   14.1113 O.2     1  UNL1       -0.2262
      8 C          66.2514   93.5679   10.9121 C.ar    1  UNL1        0.0138
      9 C          67.1551   92.9581    9.8818 C.ar    1  UNL1       -0.0010
     10 C          68.0089   93.8383    9.0179 C.ar    1  UNL1       -0.0002
     11 C          67.9590   95.3282    9.1843 C.ar    1  UNL1       -0.0000
     12 C          67.0553   95.9379   10.2146 C.ar    1  UNL1       -0.0002
     13 C          66.2015   95.0577   11.0786 C.ar    1  UNL1       -0.0010
     14 C          61.9083   89.8662   11.4385 C.3     1  UNL1        0.1010
     15 C          62.1033   88.3994   11.6847 C.ar    1  UNL1       -0.0042
     16 C          63.2043   87.9306   12.5892 C.ar    1  UNL1       -0.0027
     17 C          63.3992   86.4639   12.8354 C.ar    1  UNL1       -0.0002
     18 C          62.4932   85.4659   12.1772 C.ar    1  UNL1        0.0014
     19 C          61.3923   85.9347   11.2727 C.ar    1  UNL1       -0.0002
     20 C          61.1973   87.4014   11.0265 C.ar    1  UNL1       -0.0027
     21 C          62.6882   83.9991   12.4234 C.ar    1  UNL1        0.0175
     22 C          62.5227   83.4423   13.8063 C.ar    1  UNL1        0.0064
     23 C          62.7177   81.9755   14.0526 C.ar    1  UNL1        0.0608
     24 C          63.0782   81.0656   12.9159 C.ar    1  UNL1        0.2610
     25 O          63.2732   79.5989   13.1621 O.2     1  UNL1       -0.2670
     26 N          63.2438   81.6225   11.5329 N.ar    1  UNL1       -0.2942
     27 C          63.0488   83.0892   11.2867 C.ar    1  UNL1        0.0783
     28 C          63.6043   80.7126   10.3962 C.3     1  UNL1        0.1092
     29 C          62.5964   79.7344    9.8698 C.3     1  UNL1        0.0266
     30 C          59.9687   90.1069    9.7268 C.3     1  UNL1        0.0021
     31 C          60.5503   90.3924   11.0797 C.3     1  UNL1        0.0245
     32 C          66.3259   93.2484   12.8124 C.3     1  UNL1        0.0714
     33 C          67.0141   92.3302   13.7784 C.3     1  UNL1        0.0922
     34 C          66.2815   92.9778   14.9160 C.3     1  UNL1        0.0294
     35 C          67.7467   91.6827   12.6409 C.3     1  UNL1        0.0294
     36 O          67.7023   91.4120   14.7444 O.3     1  UNL1       -0.3866
     37 H          67.4040   91.6090   15.6462 H       1  UNL1        0.2102
@<TRIPOS>BOND
     1    30    31    1
     2    14    31    1
     3    14    15    1
     4    15    16   ar
     5    16    17   ar
     6    17    18   ar
     7    18    21    1
     8    21    22   ar
     9    22    23   ar
    10    23    24   ar
    11    24    25    2
    12    24    26   ar
    13    26    28    1
    14    28    29    1
    15    26    27   ar
    16    18    19   ar
    17    19    20   ar
    18    14     1    1
    19     1     2    1
    20     2     3    1
    21     3     4    1
    22     4    32    1
    23    32    33    1
    24    33    34    1
    25    33    35    1
    26    33    36    1
    27     4     8    1
    28     8     9   ar
    29     9    10   ar
    30    10    11   ar
    31    11    12   ar
    32    12    13   ar
    33     4     5    1
    34     5     6    1
    35     6     7    2
    36    20    15   ar
    37     6     1   am
    38    27    21   ar
    39    13     8   ar
    40    36    37    1
