@<TRIPOS>MOLECULE
*****
 36 38 0 0 0
SMALL
GASTEIGER

@<TRIPOS>ATOM
      1 N          63.5053   86.3556   13.6271 N.pl3   1  UNL1       -0.2927
      2 C          63.0430   87.1916   12.4707 C.3     1  UNL1        0.0927
      3 C          63.3722   88.6543   12.4237 C.3     1  UNL1        0.0306
      4 C          64.1637   89.2809   13.5330 C.3     1  UNL1        0.0814
      5 C          64.6260   88.4450   14.6894 C.3     1  UNL1        0.0306
      6 C          64.2968   86.9823   14.7365 C.3     1  UNL1        0.0927
      7 C          62.5175   81.9676   13.7683 C.ar    1  UNL1        0.0900
      8 C          62.2530   82.8348   14.9633 C.ar    1  UNL1        0.0207
      9 C          62.5822   84.2974   14.9162 C.ar    1  UNL1        0.1001
     10 C          63.1760   84.8930   13.6742 C.ar    1  UNL1        0.1409
     11 N          63.4406   84.0258   12.4792 N.ar    1  UNL1       -0.2341
     12 C          63.1113   82.5631   12.5263 C.ar    1  UNL1        0.0670
     13 C          63.3759   81.6960   11.3312 C.3     1  UNL1        0.0524
     14 C          62.1883   80.5050   13.8154 C.2     1  UNL1        0.3424
     15 O          63.2215   79.5179   14.2718 O.2     1  UNL1       -0.2449
     16 O          60.8259   80.0293   13.4061 O.3     1  UNL1       -0.4454
     17 C          58.7017   79.2481   14.6818 C.3     1  UNL1        0.0513
     18 C          59.6335   80.3452   14.2595 C.3     1  UNL1        0.2089
     19 C          62.3176   85.1646   16.1113 C.1     1  UNL1        0.1032
     20 N          62.0531   86.0317   17.3063 N.1     1  UNL1       -0.1907
     21 C          64.4930   90.7436   13.4860 C.2     1  UNL1        0.2402
     22 O          63.7960   91.6993   14.4083 O.2     1  UNL1       -0.2736
     23 N          65.5192   91.2506   12.5165 N.am    1  UNL1       -0.1885
     24 H          65.9766   90.6233   11.9111 H       1  UNL1        0.1762
     25 S          65.8484   92.7132   12.4695 S.O2    1  UNL1        0.0603
     26 O          64.7720   92.9226   11.4459 O.2     1  UNL1       -0.1541
     27 O          66.9248   92.5039   13.4930 O.2     1  UNL1       -0.1541
     28 C          66.1776   94.1759   12.4224 C.3     1  UNL1        0.2010
     29 C          66.4758   94.8357   11.1087 C.ar    1  UNL1        0.0308
     30 C          65.8998   96.1857   10.7997 C.ar    1  UNL1        0.0020
     31 C          66.1980   96.8455    9.4860 C.ar    1  UNL1        0.0295
     32 C          67.0722   96.1552    8.4813 C.ar    1  UNL1        0.1424
     33 F          67.3704   96.8149    7.1677 F       1  UNL1       -0.2041
     34 C          67.6482   94.8051    8.7904 C.ar    1  UNL1        0.0590
     35 C          67.3500   94.1453   10.1042 C.ar    1  UNL1        0.1401
     36 F          67.9259   92.7953   10.4132 F       1  UNL1       -0.2044
@<TRIPOS>BOND
     1    17    18    1
     2    18    16    1
     3    16    14    1
     4    14    15    2
     5    14     7    1
     6     7     8   ar
     7     8     9   ar
     8     9    19    1
     9    19    20    3
    10     9    10   ar
    11    10     1    1
    12     1     2    1
    13     2     3    1
    14     3     4    1
    15     4    21    1
    16    21    22    2
    17    21    23   am
    18    23    25    1
    19    25    26    2
    20    25    27    2
    21    25    28    1
    22    28    29    1
    23    29    30   ar
    24    30    31   ar
    25    31    32   ar
    26    32    33    1
    27    32    34   ar
    28    34    35   ar
    29    35    36    1
    30     4     5    1
    31     5     6    1
    32    10    11   ar
    33    11    12   ar
    34    12    13    1
    35    12     7   ar
    36     6     1    1
    37    35    29   ar
    38    23    24    1
