@<TRIPOS>MOLECULE
*****
 21 22 0 0 0
SMALL
GASTEIGER

@<TRIPOS>ATOM
      1 C          63.8271   82.3338   13.8371 C.2     1  UNL1        0.4049
      2 O          64.6177   82.1677   12.5733 O.2     1  UNL1       -0.2262
      3 N          63.6830   83.6914   14.4586 N.am    1  UNL1       -0.2454
      4 C          62.8923   83.8575   15.7224 C.3     1  UNL1        0.1011
      5 C          62.7483   85.2151   16.3439 C.3     1  UNL1        0.0443
      6 C          63.3948   86.4065   15.7017 C.2     1  UNL1       -0.0326
      7 C          63.2508   87.7640   16.3232 C.2     1  UNL1        0.0412
      8 C          64.1855   86.2403   14.4379 C.3     1  UNL1        0.0443
      9 C          64.3296   84.8827   13.8164 C.3     1  UNL1        0.1011
     10 C          63.8973   88.9554   15.6810 C.1     1  UNL1       -0.0598
     11 C          64.5440   90.1468   15.0387 C.1     1  UNL1       -0.0598
     12 C          65.1906   91.3382   14.3965 C.ar    1  UNL1        0.0417
     13 C          66.0550   92.2531   15.2124 C.ar    1  UNL1        0.0082
     14 C          66.7016   93.4445   14.5701 C.ar    1  UNL1        0.0003
     15 C          66.4838   93.7210   13.1120 C.ar    1  UNL1       -0.0042
     16 C          65.6193   92.8061   12.2961 C.ar    1  UNL1       -0.0212
     17 C          65.4015   93.0826   10.8380 C.3     1  UNL1        0.0310
     18 C          64.9727   91.6146   12.9384 C.ar    1  UNL1        0.0040
     19 O          63.1805   81.1425   14.4793 O.3     1  UNL1       -0.4345
     20 C          60.6370   80.7226   14.1563 C.3     1  UNL1        0.0513
     21 C          62.0597   80.4303   13.7816 C.3     1  UNL1        0.2102
@<TRIPOS>BOND
     1    20    21    1
     2    21    19    1
     3    19     1    1
     4     1     2    2
     5     1     3   am
     6     3     4    1
     7     4     5    1
     8     5     6    1
     9     6     7    2
    10     7    10    1
    11    10    11    3
    12    11    12    1
    13    12    13   ar
    14    13    14   ar
    15    14    15   ar
    16    15    16   ar
    17    16    17    1
    18    16    18   ar
    19     6     8    1
    20     8     9    1
    21     9     3    1
    22    18    12   ar
@<TRIPOS>MOLECULE
*****
 21 22 0 0 0
SMALL
GASTEIGER

@<TRIPOS>ATOM
      1 C          63.9236   82.0095   13.4629 C.2     1  UNL1        0.4049
      2 O          64.6984   81.9047   12.1829 O.2     1  UNL1       -0.2262
      3 N          63.7733   83.3385   14.1420 N.am    1  UNL1       -0.2454
      4 C          62.9984   83.4433   15.4220 C.3     1  UNL1        0.1011
      5 C          62.8481   84.7723   16.1011 C.3     1  UNL1        0.0443
      6 C          63.4726   85.9965   15.5001 C.2     1  UNL1       -0.0326
      7 C          63.3223   87.3256   16.1791 C.2     1  UNL1        0.0412
      8 C          64.2475   85.8917   14.2200 C.3     1  UNL1        0.0443
      9 C          64.3978   84.5627   13.5410 C.3     1  UNL1        0.1011
     10 C          63.9469   88.5498   15.5782 C.1     1  UNL1       -0.0598
     11 C          64.5714   89.7740   14.9771 C.1     1  UNL1       -0.0598
     12 C          65.1960   90.9982   14.3761 C.ar    1  UNL1        0.0417
     13 C          64.7739   91.4639   13.0140 C.ar    1  UNL1        0.0082
     14 C          65.3984   92.6881   12.4130 C.ar    1  UNL1        0.0003
     15 C          66.4450   93.4467   13.1740 C.ar    1  UNL1       -0.0042
     16 C          66.8671   92.9811   14.5360 C.ar    1  UNL1       -0.0212
     17 C          67.9138   93.7397   15.2969 C.3     1  UNL1        0.0310
     18 C          66.2426   91.7568   15.1371 C.ar    1  UNL1        0.0040
     19 O          63.2990   80.7853   14.0639 O.3     1  UNL1       -0.4345
     20 C          60.7011   80.7745   14.0928 C.3     1  UNL1        0.0513
     21 C          61.9961   80.2687   13.5295 C.3     1  UNL1        0.2102
@<TRIPOS>BOND
     1    20    21    1
     2    21    19    1
     3    19     1    1
     4     1     2    2
     5     1     3   am
     6     3     4    1
     7     4     5    1
     8     5     6    1
     9     6     7    2
    10     7    10    1
    11    10    11    3
    12    11    12    1
    13    12    13   ar
    14    13    14   ar
    15    14    15   ar
    16    15    16   ar
    17    16    17    1
    18    16    18   ar
    19     6     8    1
    20     8     9    1
    21     9     3    1
    22    18    12   ar
@<TRIPOS>MOLECULE
*****
 21 22 0 0 0
SMALL
GASTEIGER

@<TRIPOS>ATOM
      1 C          66.5046   93.6764   13.6790 C.2     1  UNL1        0.4049
      2 O          66.4606   94.6908   12.5749 O.2     1  UNL1       -0.2262
      3 N          65.7363   92.3945   13.5508 N.am    1  UNL1       -0.2454
      4 C          65.7803   91.3801   14.6549 C.3     1  UNL1        0.1011
      5 C          65.0120   90.0982   14.5267 C.3     1  UNL1        0.0443
      6 C          64.1997   89.8307   13.2944 C.2     1  UNL1       -0.0326
      7 C          63.4314   88.5488   13.1662 C.2     1  UNL1        0.0412
      8 C          64.1557   90.8451   12.1903 C.3     1  UNL1        0.0443
      9 C          64.9240   92.1270   12.3185 C.3     1  UNL1        0.1011
     10 C          62.6191   88.2813   11.9339 C.1     1  UNL1       -0.0598
     11 C          61.8067   88.0137   10.7016 C.1     1  UNL1       -0.0598
     12 C          60.9944   87.7462    9.4693 C.ar    1  UNL1        0.0417
     13 C          60.7367   86.3345    9.0327 C.ar    1  UNL1        0.0082
     14 C          59.9244   86.0669    7.8004 C.ar    1  UNL1        0.0003
     15 C          59.3698   87.2111    7.0047 C.ar    1  UNL1       -0.0042
     16 C          59.6274   88.6229    7.4412 C.ar    1  UNL1       -0.0212
     17 C          59.0728   89.7671    6.6455 C.3     1  UNL1        0.0310
     18 C          60.4398   88.8904    8.6736 C.ar    1  UNL1        0.0040
     19 O          67.3169   93.9439   14.9113 O.3     1  UNL1       -0.4345
     20 C          68.7941   92.3397   16.3235 C.3     1  UNL1        0.0513
     21 C          68.6152   93.2236   15.1248 C.3     1  UNL1        0.2102
@<TRIPOS>BOND
     1    20    21    1
     2    21    19    1
     3    19     1    1
     4     1     2    2
     5     1     3   am
     6     3     4    1
     7     4     5    1
     8     5     6    1
     9     6     7    2
    10     7    10    1
    11    10    11    3
    12    11    12    1
    13    12    13   ar
    14    13    14   ar
    15    14    15   ar
    16    15    16   ar
    17    16    17    1
    18    16    18   ar
    19     6     8    1
    20     8     9    1
    21     9     3    1
    22    18    12   ar
@<TRIPOS>MOLECULE
*****
 21 22 0 0 0
SMALL
GASTEIGER

@<TRIPOS>ATOM
      1 C          65.4106   91.9584   14.3347 C.2     1  UNL1        0.4049
      2 O          66.1897   91.5616   15.5534 O.2     1  UNL1       -0.2262
      3 N          64.6544   90.9220   13.5575 N.am    1  UNL1       -0.2454
      4 C          63.8753   91.3188   12.3387 C.3     1  UNL1        0.1011
      5 C          63.1191   90.2824   11.5616 C.3     1  UNL1        0.0443
      6 C          63.1420   88.8491   12.0032 C.2     1  UNL1       -0.0326
      7 C          62.3859   87.8126   11.2260 C.2     1  UNL1        0.0412
      8 C          63.9211   88.4522   13.2220 C.3     1  UNL1        0.0443
      9 C          64.6773   89.4887   13.9991 C.3     1  UNL1        0.1011
     10 C          62.4088   86.3793   11.6677 C.1     1  UNL1       -0.0598
     11 C          62.4317   84.9459   12.1092 C.1     1  UNL1       -0.0598
     12 C          62.4547   83.5126   12.5509 C.ar    1  UNL1        0.0417
     13 C          62.2406   83.1693   13.9953 C.ar    1  UNL1        0.0082
     14 C          62.2635   81.7360   14.4369 C.ar    1  UNL1        0.0003
     15 C          62.5005   80.6459   13.4341 C.ar    1  UNL1       -0.0042
     16 C          62.7146   80.9892   11.9898 C.ar    1  UNL1       -0.0212
     17 C          62.9516   79.8991   10.9870 C.3     1  UNL1        0.0310
     18 C          62.6917   82.4225   11.5481 C.ar    1  UNL1        0.0040
     19 O          65.3876   93.3917   13.8931 O.3     1  UNL1       -0.4345
     20 C          66.0878   94.5347   11.6674 C.3     1  UNL1        0.0513
     21 C          66.4586   93.9128   12.9812 C.3     1  UNL1        0.2102
@<TRIPOS>BOND
     1    20    21    1
     2    21    19    1
     3    19     1    1
     4     1     2    2
     5     1     3   am
     6     3     4    1
     7     4     5    1
     8     5     6    1
     9     6     7    2
    10     7    10    1
    11    10    11    3
    12    11    12    1
    13    12    13   ar
    14    13    14   ar
    15    14    15   ar
    16    15    16   ar
    17    16    17    1
    18    16    18   ar
    19     6     8    1
    20     8     9    1
    21     9     3    1
    22    18    12   ar
@<TRIPOS>MOLECULE
*****
 21 22 0 0 0
SMALL
GASTEIGER

@<TRIPOS>ATOM
      1 C          63.7122   93.7162    0.6903 C.2     1  UNL1        0.4049
      2 O          65.0525   93.0666    0.8674 O.2     1  UNL1       -0.2262
      3 N          62.5636   93.3176    1.5688 N.am    1  UNL1       -0.2454
      4 C          61.2232   93.9672    1.3917 C.3     1  UNL1        0.1011
      5 C          60.0746   93.5686    2.2702 C.3     1  UNL1        0.0443
      6 C          60.2663   92.5204    3.3258 C.2     1  UNL1       -0.0326
      7 C          59.1177   92.1217    4.2043 C.2     1  UNL1        0.0412
      8 C          61.6067   91.8707    3.5029 C.3     1  UNL1        0.0443
      9 C          62.7553   92.2694    2.6244 C.3     1  UNL1        0.1011
     10 C          59.3094   91.0735    5.2599 C.1     1  UNL1       -0.0598
     11 C          59.5011   90.0252    6.3156 C.1     1  UNL1       -0.0598
     12 C          59.6929   88.9769    7.3712 C.ar    1  UNL1        0.0417
     13 C          59.3261   87.5504    7.0870 C.ar    1  UNL1        0.0082
     14 C          59.5178   86.5022    8.1426 C.ar    1  UNL1        0.0003
     15 C          60.0763   86.8803    9.4824 C.ar    1  UNL1       -0.0042
     16 C          60.4431   88.3067    9.7666 C.ar    1  UNL1       -0.0212
     17 C          61.0016   88.6848   11.1064 C.3     1  UNL1        0.0310
     18 C          60.2514   89.3550    8.7110 C.ar    1  UNL1        0.0040
     19 O          63.5204   94.7645   -0.3653 O.3     1  UNL1       -0.4345
     20 C          62.1690   93.5734   -2.2375 C.3     1  UNL1        0.0513
     21 C          63.3681   94.3627   -1.8025 C.3     1  UNL1        0.2102
@<TRIPOS>BOND
     1    20    21    1
     2    21    19    1
     3    19     1    1
     4     1     2    2
     5     1     3   am
     6     3     4    1
     7     4     5    1
     8     5     6    1
     9     6     7    2
    10     7    10    1
    11    10    11    3
    12    11    12    1
    13    12    13   ar
    14    13    14   ar
    15    14    15   ar
    16    15    16   ar
    17    16    17    1
    18    16    18   ar
    19     6     8    1
    20     8     9    1
    21     9     3    1
    22    18    12   ar
@<TRIPOS>MOLECULE
*****
 21 22 0 0 0
SMALL
GASTEIGER

@<TRIPOS>ATOM
      1 C          63.8341   91.3934   11.7517 C.2     1  UNL1        0.4049
      2 O          63.2459   91.2130   10.3837 O.2     1  UNL1       -0.2262
      3 N          63.9557   90.2187   12.6766 N.am    1  UNL1       -0.2454
      4 C          64.5438   90.3991   14.0447 C.3     1  UNL1        0.1011
      5 C          64.6655   89.2245   14.9696 C.3     1  UNL1        0.0443
      6 C          64.1990   87.8695   14.5265 C.2     1  UNL1       -0.0326
      7 C          64.3207   86.6949   15.4514 C.2     1  UNL1        0.0412
      8 C          63.6109   87.6891   13.1584 C.3     1  UNL1        0.0443
      9 C          63.4893   88.8638   12.2335 C.3     1  UNL1        0.1011
     10 C          63.8543   85.3399   15.0083 C.1     1  UNL1       -0.0598
     11 C          63.3878   83.9848   14.5651 C.1     1  UNL1       -0.0598
     12 C          62.9214   82.6298   14.1220 C.ar    1  UNL1        0.0417
     13 C          63.8559   81.7203   13.3807 C.ar    1  UNL1        0.0082
     14 C          63.3894   80.3653   12.9376 C.ar    1  UNL1        0.0003
     15 C          61.9885   79.9198   13.2358 C.ar    1  UNL1       -0.0042
     16 C          61.0540   80.8293   13.9771 C.ar    1  UNL1       -0.0212
     17 C          59.6531   80.3837   14.2753 C.3     1  UNL1        0.0310
     18 C          61.5204   82.1843   14.4202 C.ar    1  UNL1        0.0040
     19 O          64.3005   92.7483   12.1948 O.3     1  UNL1       -0.4345
     20 C          66.8667   92.3949   11.9956 C.3     1  UNL1        0.0513
     21 C          65.6524   93.2488   11.7802 C.3     1  UNL1        0.2102
@<TRIPOS>BOND
     1    20    21    1
     2    21    19    1
     3    19     1    1
     4     1     2    2
     5     1     3   am
     6     3     4    1
     7     4     5    1
     8     5     6    1
     9     6     7    2
    10     7    10    1
    11    10    11    3
    12    11    12    1
    13    12    13   ar
    14    13    14   ar
    15    14    15   ar
    16    15    16   ar
    17    16    17    1
    18    16    18   ar
    19     6     8    1
    20     8     9    1
    21     9     3    1
    22    18    12   ar
@<TRIPOS>MOLECULE
*****
 21 22 0 0 0
SMALL
GASTEIGER

@<TRIPOS>ATOM
      1 C          62.5242   93.2389    1.5393 C.2     1  UNL1        0.4049
      2 O          63.9886   92.9146    1.5524 O.2     1  UNL1       -0.2262
      3 N          61.6101   92.6213    2.5557 N.am    1  UNL1       -0.2454
      4 C          60.1457   92.9457    2.5426 C.3     1  UNL1        0.1011
      5 C          59.2316   92.3281    3.5590 C.3     1  UNL1        0.0443
      6 C          59.7819   91.3861    4.5884 C.2     1  UNL1       -0.0326
      7 C          58.8679   90.7685    5.6048 C.2     1  UNL1        0.0412
      8 C          61.2464   91.0618    4.6015 C.3     1  UNL1        0.0443
      9 C          62.1604   91.6794    3.5851 C.3     1  UNL1        0.1011
     10 C          59.4182   89.8266    6.6343 C.1     1  UNL1       -0.0598
     11 C          59.9686   88.8846    7.6638 C.1     1  UNL1       -0.0598
     12 C          60.5190   87.9427    8.6932 C.ar    1  UNL1        0.0417
     13 C          60.1041   88.0747   10.1287 C.ar    1  UNL1        0.0082
     14 C          60.6544   87.1328   11.1582 C.ar    1  UNL1        0.0003
     15 C          61.6197   86.0588   10.7522 C.ar    1  UNL1       -0.0042
     16 C          62.0346   85.9267    9.3169 C.ar    1  UNL1       -0.0212
     17 C          62.9999   84.8527    8.9110 C.3     1  UNL1        0.0310
     18 C          61.4842   86.8687    8.2873 C.ar    1  UNL1        0.0040
     19 O          61.9738   94.1809    0.5098 O.3     1  UNL1       -0.4345
     20 C          60.3440   93.0579   -1.1732 C.3     1  UNL1        0.0513
     21 C          61.6726   93.6868   -0.8740 C.3     1  UNL1        0.2102
@<TRIPOS>BOND
     1    20    21    1
     2    21    19    1
     3    19     1    1
     4     1     2    2
     5     1     3   am
     6     3     4    1
     7     4     5    1
     8     5     6    1
     9     6     7    2
    10     7    10    1
    11    10    11    3
    12    11    12    1
    13    12    13   ar
    14    13    14   ar
    15    14    15   ar
    16    15    16   ar
    17    16    17    1
    18    16    18   ar
    19     6     8    1
    20     8     9    1
    21     9     3    1
    22    18    12   ar
@<TRIPOS>MOLECULE
*****
 21 22 0 0 0
SMALL
GASTEIGER

@<TRIPOS>ATOM
      1 C          60.5557   93.0582    2.7806 C.2     1  UNL1        0.4049
      2 O          61.9978   93.0411    2.3685 O.2     1  UNL1       -0.2262
      3 N          60.0640   92.1051    3.8294 N.am    1  UNL1       -0.2454
      4 C          58.6218   92.1222    4.2415 C.3     1  UNL1        0.1011
      5 C          58.1301   91.1692    5.2903 C.3     1  UNL1        0.0443
      6 C          59.0806   90.1990    5.9269 C.2     1  UNL1       -0.0326
      7 C          58.5889   89.2460    6.9757 C.2     1  UNL1        0.0412
      8 C          60.5227   90.1819    5.5148 C.3     1  UNL1        0.0443
      9 C          61.0144   91.1350    4.4661 C.3     1  UNL1        0.1011
     10 C          59.5393   88.2758    7.6124 C.1     1  UNL1       -0.0598
     11 C          60.4898   87.3056    8.2491 C.1     1  UNL1       -0.0598
     12 C          61.4403   86.3354    8.8858 C.ar    1  UNL1        0.0417
     13 C          62.3857   85.5424    8.0330 C.ar    1  UNL1        0.0082
     14 C          63.3361   84.5722    8.6696 C.ar    1  UNL1        0.0003
     15 C          63.3412   84.3951   10.1591 C.ar    1  UNL1       -0.0042
     16 C          62.3958   85.1881   11.0120 C.ar    1  UNL1       -0.0212
     17 C          62.4009   85.0109   12.5015 C.3     1  UNL1        0.0310
     18 C          61.4453   86.1583   10.3753 C.ar    1  UNL1        0.0040
     19 O          59.6052   94.0283    2.1440 O.3     1  UNL1       -0.4345
     20 C          60.0036   95.0855   -0.1957 C.3     1  UNL1        0.0513
     21 C          60.1324   95.1489    1.2975 C.3     1  UNL1        0.2102
@<TRIPOS>BOND
     1    20    21    1
     2    21    19    1
     3    19     1    1
     4     1     2    2
     5     1     3   am
     6     3     4    1
     7     4     5    1
     8     5     6    1
     9     6     7    2
    10     7    10    1
    11    10    11    3
    12    11    12    1
    13    12    13   ar
    14    13    14   ar
    15    14    15   ar
    16    15    16   ar
    17    16    17    1
    18    16    18   ar
    19     6     8    1
    20     8     9    1
    21     9     3    1
    22    18    12   ar
@<TRIPOS>MOLECULE
*****
 21 22 0 0 0
SMALL
GASTEIGER

@<TRIPOS>ATOM
      1 C          63.8741   88.1143   13.4855 C.2     1  UNL1        0.4049
      2 O          64.3466   89.5195   13.7140 O.2     1  UNL1       -0.2262
      3 N          63.0039   87.7982   12.3054 N.am    1  UNL1       -0.2454
      4 C          62.5314   86.3930   12.0770 C.3     1  UNL1        0.1011
      5 C          61.6612   86.0768   10.8968 C.3     1  UNL1        0.0443
      6 C          61.2634   87.1658    9.9451 C.2     1  UNL1       -0.0326
      7 C          60.3932   86.8497    8.7650 C.2     1  UNL1        0.0412
      8 C          61.7359   88.5710   10.1735 C.3     1  UNL1        0.0443
      9 C          62.6061   88.8872   11.3537 C.3     1  UNL1        0.1011
     10 C          59.9955   87.9386    7.8132 C.1     1  UNL1       -0.0598
     11 C          59.5976   89.0277    6.8614 C.1     1  UNL1       -0.0598
     12 C          59.1999   90.1167    5.9097 C.ar    1  UNL1        0.0417
     13 C          57.7612   90.5263    5.7976 C.ar    1  UNL1        0.0082
     14 C          57.3634   91.6153    4.8459 C.ar    1  UNL1        0.0003
     15 C          58.4043   92.2947    4.0062 C.ar    1  UNL1       -0.0042
     16 C          59.8429   91.8852    4.1183 C.ar    1  UNL1       -0.0212
     17 C          60.8837   92.5646    3.2786 C.3     1  UNL1        0.0310
     18 C          60.2407   90.7961    5.0701 C.ar    1  UNL1        0.0040
     19 O          64.2719   87.0253   14.4372 O.3     1  UNL1       -0.4345
     20 C          63.3460   85.8457   16.5589 C.3     1  UNL1        0.0513
     21 C          63.8351   87.0857   15.8710 C.3     1  UNL1        0.2102
@<TRIPOS>BOND
     1    20    21    1
     2    21    19    1
     3    19     1    1
     4     1     2    2
     5     1     3   am
     6     3     4    1
     7     4     5    1
     8     5     6    1
     9     6     7    2
    10     7    10    1
    11    10    11    3
    12    11    12    1
    13    12    13   ar
    14    13    14   ar
    15    14    15   ar
    16    15    16   ar
    17    16    17    1
    18    16    18   ar
    19     6     8    1
    20     8     9    1
    21     9     3    1
    22    18    12   ar
