@<TRIPOS>MOLECULE
*****
 32 34 0 0 0
SMALL
GASTEIGER

@<TRIPOS>ATOM
      1 N          62.5515   90.2089   12.0517 N.am    1  UNL1       -0.2637
      2 C          62.7287   90.0556   13.5333 C.3     1  UNL1        0.1401
      3 C          63.8815   90.9183   13.9540 C.ar    1  UNL1        0.0830
      4 N          64.5129   91.1674   15.2916 N.ar    1  UNL1       -0.2524
      5 C          65.6796   92.1031   15.4076 C.ar    1  UNL1        0.0563
      6 C          66.3111   92.3522   16.7452 C.3     1  UNL1        0.0518
      7 C          66.2148   92.7896   14.1860 C.ar    1  UNL1        0.0072
      8 C          65.5833   92.5404   12.8484 C.ar    1  UNL1        0.0048
      9 C          64.4167   91.6048   12.7324 C.ar    1  UNL1        0.0686
     10 C          63.5947   91.1664   11.5567 C.2     1  UNL1        0.2508
     11 O          63.7829   91.6079   10.1356 O.2     1  UNL1       -0.2698
     12 C          66.1185   93.2269   11.6268 C.ar    1  UNL1        0.0106
     13 C          65.4410   94.4572   11.1004 C.ar    1  UNL1        0.0017
     14 C          65.9762   95.1437    9.8788 C.ar    1  UNL1        0.0114
     15 C          67.1889   94.5999    9.1836 C.ar    1  UNL1        0.0585
     16 CL         67.7242   95.2864    7.9620 Cl      1  UNL1       -0.0822
     17 C          67.8666   93.3695    9.7100 C.ar    1  UNL1        0.0228
     18 C          67.3314   92.6830   10.9316 C.ar    1  UNL1        0.0585
     19 CL         68.0090   91.4527   11.4580 Cl      1  UNL1       -0.0822
     20 C          67.3815   93.7252   14.3020 C.3     1  UNL1        0.0934
     21 N          68.7505   93.1846   14.5906 N.3     1  UNL1       -0.3174
     22 H          68.7650   92.7770   15.5256 H       1  UNL1        0.1192
     23 H          69.4327   93.9412   14.5390 H       1  UNL1        0.1192
     24 C          61.5133   89.5249   11.2125 C.3     1  UNL1        0.1526
     25 C          60.2920   90.2754   10.7711 C.3     1  UNL1        0.0314
     26 N          61.1314   87.5938    9.5169 N.am    1  UNL1       -0.2782
     27 C          61.6966   88.0903   10.8146 C.2     1  UNL1        0.2437
     28 O          62.4451   87.1521   11.7144 O.2     1  UNL1       -0.2731
     29 C          62.6132   85.7071    8.5195 C.3     1  UNL1        0.0233
     30 C          61.3146   86.1592    9.1190 C.3     1  UNL1        0.0935
     31 C          60.3829   88.5319    8.6170 C.3     1  UNL1        0.0935
     32 C          59.3064   88.0064    7.7143 C.3     1  UNL1        0.0233
@<TRIPOS>BOND
     1    29    30    1
     2    30    26    1
     3    26    31    1
     4    31    32    1
     5    26    27   am
     6    27    28    2
     7    27    24    1
     8    24    25    1
     9    24     1    1
    10     1     2    1
    11     2     3    1
    12     3     4   ar
    13     4     5   ar
    14     5     6    1
    15     5     7   ar
    16     7    20    1
    17    20    21    1
    18     7     8   ar
    19     8    12    1
    20    12    13   ar
    21    13    14   ar
    22    14    15   ar
    23    15    16    1
    24    15    17   ar
    25    17    18   ar
    26    18    19    1
    27     8     9   ar
    28     9    10    1
    29    10    11    2
    30    10     1   am
    31     9     3   ar
    32    18    12   ar
    33    21    22    1
    34    21    23    1
@<TRIPOS>MOLECULE
*****
 32 34 0 0 0
SMALL
GASTEIGER

@<TRIPOS>ATOM
      1 N          63.8696   85.5929   14.0237 N.am    1  UNL1       -0.2637
      2 C          64.5333   86.8057   14.6055 C.3     1  UNL1        0.1401
      3 C          64.1232   87.9953   13.7891 C.ar    1  UNL1        0.0830
      4 N          64.4664   89.4517   13.8946 N.ar    1  UNL1       -0.2524
      5 C          63.8923   90.4305   12.9135 C.ar    1  UNL1        0.0563
      6 C          64.2356   91.8869   13.0190 C.3     1  UNL1        0.0518
      7 C          62.9750   89.9530   11.8270 C.ar    1  UNL1        0.0072
      8 C          62.6318   88.4965   11.7216 C.ar    1  UNL1        0.0048
      9 C          63.2058   87.5178   12.7026 C.ar    1  UNL1        0.0686
     10 C          63.0491   86.0330   12.8476 C.2     1  UNL1        0.2508
     11 O          62.2179   85.1444   11.9704 O.2     1  UNL1       -0.2698
     12 C          61.7145   88.0190   10.6351 C.ar    1  UNL1        0.0106
     13 C          62.2728   87.2916    9.4480 C.ar    1  UNL1        0.0017
     14 C          61.3555   86.8140    8.3615 C.ar    1  UNL1        0.0114
     15 C          59.8799   87.0638    8.4621 C.ar    1  UNL1        0.0585
     16 CL         58.9626   86.5863    7.3756 Cl      1  UNL1       -0.0822
     17 C          59.3215   87.7913    9.6492 C.ar    1  UNL1        0.0228
     18 C          60.2388   88.2688   10.7357 C.ar    1  UNL1        0.0585
     19 CL         59.6805   88.9962   11.9227 Cl      1  UNL1       -0.0822
     20 C          62.4010   90.9318   10.8460 C.3     1  UNL1        0.0934
     21 N          63.2789   91.5410    9.7935 N.3     1  UNL1       -0.3174
     22 H          63.9795   92.1350   10.2371 H       1  UNL1        0.1192
     23 H          62.7101   92.1018    9.1592 H       1  UNL1        0.1192
     24 C          64.0028   84.1870   14.5291 C.3     1  UNL1        0.1526
     25 C          65.1182   83.8294   15.4662 C.3     1  UNL1        0.0314
     26 N          63.2882   82.3208   12.8688 N.am    1  UNL1       -0.2782
     27 C          63.0207   83.1386   14.0976 C.2     1  UNL1        0.2437
     28 O          61.7712   82.9079   14.8947 O.2     1  UNL1       -0.2731
     29 C          62.2956   79.9320   13.1105 C.3     1  UNL1        0.0233
     30 C          62.3060   81.2724   12.4373 C.3     1  UNL1        0.0935
     31 C          64.5377   82.5515   12.0717 C.3     1  UNL1        0.0935
     32 C          64.4455   82.8801   10.6110 C.3     1  UNL1        0.0233
@<TRIPOS>BOND
     1    29    30    1
     2    30    26    1
     3    26    31    1
     4    31    32    1
     5    26    27   am
     6    27    28    2
     7    27    24    1
     8    24    25    1
     9    24     1    1
    10     1     2    1
    11     2     3    1
    12     3     4   ar
    13     4     5   ar
    14     5     6    1
    15     5     7   ar
    16     7    20    1
    17    20    21    1
    18     7     8   ar
    19     8    12    1
    20    12    13   ar
    21    13    14   ar
    22    14    15   ar
    23    15    16    1
    24    15    17   ar
    25    17    18   ar
    26    18    19    1
    27     8     9   ar
    28     9    10    1
    29    10    11    2
    30    10     1   am
    31     9     3   ar
    32    18    12   ar
    33    21    22    1
    34    21    23    1
@<TRIPOS>MOLECULE
*****
 32 34 0 0 0
SMALL
GASTEIGER

@<TRIPOS>ATOM
      1 N          62.9448   90.0908   12.0892 N.am    1  UNL1       -0.2637
      2 C          61.9876   90.7092   11.1138 C.3     1  UNL1        0.1401
      3 C          61.4027   89.6097   10.2777 C.ar    1  UNL1        0.0830
      4 N          60.4046   89.6227    9.1581 N.ar    1  UNL1       -0.2524
      5 C          60.0023   88.3377    8.4970 C.ar    1  UNL1        0.0563
      6 C          59.0042   88.3507    7.3774 C.3     1  UNL1        0.0518
      7 C          60.5980   87.0397    8.9557 C.ar    1  UNL1        0.0072
      8 C          61.5961   87.0268   10.0754 C.ar    1  UNL1        0.0048
      9 C          61.9984   88.3117   10.7364 C.ar    1  UNL1        0.0686
     10 C          62.9515   88.6091   11.8559 C.2     1  UNL1        0.2508
     11 O          63.7679   87.6015   12.6098 O.2     1  UNL1       -0.2698
     12 C          62.1918   85.7288   10.5341 C.ar    1  UNL1        0.0106
     13 C          61.8598   85.1902   11.8941 C.ar    1  UNL1        0.0017
     14 C          62.4555   83.8923   12.3528 C.ar    1  UNL1        0.0114
     15 C          63.3832   83.1328   11.4514 C.ar    1  UNL1        0.0585
     16 CL         63.9789   81.8348   11.9101 Cl      1  UNL1       -0.0822
     17 C          63.7153   83.6714   10.0913 C.ar    1  UNL1        0.0228
     18 C          63.1196   84.9693    9.6327 C.ar    1  UNL1        0.0585
     19 CL         63.4516   85.5079    8.2727 Cl      1  UNL1       -0.0822
     20 C          60.1956   85.7548    8.2947 C.3     1  UNL1        0.0934
     21 N          60.6032   85.4808    6.8774 N.3     1  UNL1       -0.3174
     22 H          60.1405   86.1444    6.2562 H       1  UNL1        0.1192
     23 H          60.3318   84.5310    6.6232 H       1  UNL1        0.1192
     24 C          63.7533   90.8252   13.1172 C.3     1  UNL1        0.1526
     25 C          63.5143   90.5766   14.5770 C.3     1  UNL1        0.0314
     26 N          65.7638   92.3677   13.6903 N.am    1  UNL1       -0.2782
     27 C          64.8009   91.8081   12.6855 C.2     1  UNL1        0.2437
     28 O          64.8855   92.2315   11.2490 O.2     1  UNL1       -0.2731
     29 C          66.4076   94.6346   12.5963 C.3     1  UNL1        0.0233
     30 C          66.8114   93.3507   13.2585 C.3     1  UNL1        0.0935
     31 C          65.6792   91.9444   15.1268 C.3     1  UNL1        0.0935
     32 C          66.5261   92.6256   16.1606 C.3     1  UNL1        0.0233
@<TRIPOS>BOND
     1    29    30    1
     2    30    26    1
     3    26    31    1
     4    31    32    1
     5    26    27   am
     6    27    28    2
     7    27    24    1
     8    24    25    1
     9    24     1    1
    10     1     2    1
    11     2     3    1
    12     3     4   ar
    13     4     5   ar
    14     5     6    1
    15     5     7   ar
    16     7    20    1
    17    20    21    1
    18     7     8   ar
    19     8    12    1
    20    12    13   ar
    21    13    14   ar
    22    14    15   ar
    23    15    16    1
    24    15    17   ar
    25    17    18   ar
    26    18    19    1
    27     8     9   ar
    28     9    10    1
    29    10    11    2
    30    10     1   am
    31     9     3   ar
    32    18    12   ar
    33    21    22    1
    34    21    23    1
@<TRIPOS>MOLECULE
*****
 32 34 0 0 0
SMALL
GASTEIGER

@<TRIPOS>ATOM
      1 N          63.7057   85.3568   13.4188 N.am    1  UNL1       -0.2637
      2 C          62.8014   85.2876   12.2241 C.3     1  UNL1        0.1401
      3 C          62.5404   86.6894   11.7584 C.ar    1  UNL1        0.0830
      4 N          61.7222   87.2348   10.6257 N.ar    1  UNL1       -0.2524
      5 C          61.6470   88.7159   10.3999 C.ar    1  UNL1        0.0563
      6 C          60.8288   89.2613    9.2672 C.3     1  UNL1        0.0518
      7 C          62.3902   89.6515   11.3068 C.ar    1  UNL1        0.0072
      8 C          63.2084   89.1060   12.4395 C.ar    1  UNL1        0.0048
      9 C          63.2836   87.6250   12.6653 C.ar    1  UNL1        0.0686
     10 C          64.0037   86.8014   13.6914 C.2     1  UNL1        0.2508
     11 O          64.8699   87.3297   14.7963 O.2     1  UNL1       -0.2698
     12 C          63.9516   90.0416   13.3464 C.ar    1  UNL1        0.0106
     13 C          65.1552   90.7793   12.8395 C.ar    1  UNL1        0.0017
     14 C          65.8983   91.7149   13.7464 C.ar    1  UNL1        0.0114
     15 C          65.4378   91.9127   15.1602 C.ar    1  UNL1        0.0585
     16 CL         66.1809   92.8483   16.0671 Cl      1  UNL1       -0.0822
     17 C          64.2341   91.1750   15.6671 C.ar    1  UNL1        0.0228
     18 C          63.4910   90.2394   14.7602 C.ar    1  UNL1        0.0585
     19 CL         62.2874   89.5016   15.2671 Cl      1  UNL1       -0.0822
     20 C          62.3150   91.1324   11.0810 C.3     1  UNL1        0.0934
     21 N          63.1070   91.7635    9.9744 N.3     1  UNL1       -0.3174
     22 H          64.1030   91.6715   10.1740 H       1  UNL1        0.1192
     23 H          62.8643   92.7516    9.9034 H       1  UNL1        0.1192
     24 C          64.2215   84.1869   14.2031 C.3     1  UNL1        0.1526
     25 C          65.6457   84.1685   14.6736 C.3     1  UNL1        0.0314
     26 N          63.2361   81.8645   13.5824 N.am    1  UNL1       -0.2782
     27 C          63.3132   83.0352   14.5169 C.2     1  UNL1        0.2437
     28 O          62.4819   83.0542   15.7654 O.2     1  UNL1       -0.2731
     29 C          60.8480   80.9331   14.0063 C.3     1  UNL1        0.0233
     30 C          62.3276   80.7128   13.8963 C.3     1  UNL1        0.0935
     31 C          64.0673   81.8454   12.3339 C.3     1  UNL1        0.0935
     32 C          63.4017   81.8465   10.9896 C.3     1  UNL1        0.0233
@<TRIPOS>BOND
     1    29    30    1
     2    30    26    1
     3    26    31    1
     4    31    32    1
     5    26    27   am
     6    27    28    2
     7    27    24    1
     8    24    25    1
     9    24     1    1
    10     1     2    1
    11     2     3    1
    12     3     4   ar
    13     4     5   ar
    14     5     6    1
    15     5     7   ar
    16     7    20    1
    17    20    21    1
    18     7     8   ar
    19     8    12    1
    20    12    13   ar
    21    13    14   ar
    22    14    15   ar
    23    15    16    1
    24    15    17   ar
    25    17    18   ar
    26    18    19    1
    27     8     9   ar
    28     9    10    1
    29    10    11    2
    30    10     1   am
    31     9     3   ar
    32    18    12   ar
    33    21    22    1
    34    21    23    1
@<TRIPOS>MOLECULE
*****
 32 34 0 0 0
SMALL
GASTEIGER

@<TRIPOS>ATOM
      1 N          64.0347   89.2711   13.5845 N.am    1  UNL1       -0.2637
      2 C          64.4881   88.3127   14.6456 C.3     1  UNL1        0.1401
      3 C          64.0759   86.9317   14.2296 C.ar    1  UNL1        0.0830
      4 N          64.2540   85.5922   14.8809 N.ar    1  UNL1       -0.2524
      5 C          63.7238   84.3576   14.2139 C.ar    1  UNL1        0.0563
      6 C          63.9019   83.0182   14.8651 C.3     1  UNL1        0.0518
      7 C          63.0156   84.4625   12.8958 C.ar    1  UNL1        0.0072
      8 C          62.8376   85.8021   12.2446 C.ar    1  UNL1        0.0048
      9 C          63.3677   87.0366   12.9115 C.ar    1  UNL1        0.0686
     10 C          63.3423   88.4824   12.5128 C.2     1  UNL1        0.2508
     11 O          62.7315   89.0414   11.2620 O.2     1  UNL1       -0.2698
     12 C          62.1294   85.9070   10.9265 C.ar    1  UNL1        0.0106
     13 C          60.8243   86.6402   10.8325 C.ar    1  UNL1        0.0017
     14 C          60.1161   86.7451    9.5144 C.ar    1  UNL1        0.0114
     15 C          60.7131   86.1168    8.2902 C.ar    1  UNL1        0.0585
     16 CL         60.0049   86.2217    6.9721 Cl      1  UNL1       -0.0822
     17 C          62.0183   85.3835    8.3841 C.ar    1  UNL1        0.0228
     18 C          62.7265   85.2786    9.7022 C.ar    1  UNL1        0.0585
     19 CL         64.0316   84.5454    9.7961 Cl      1  UNL1       -0.0822
     20 C          62.4855   83.2280   12.2289 C.3     1  UNL1        0.0934
     21 N          63.4271   82.1365   11.8142 N.3     1  UNL1       -0.3174
     22 H          64.0409   82.4795   11.0753 H       1  UNL1        0.1192
     23 H          62.8925   81.3391   11.4694 H       1  UNL1        0.1192
     24 C          64.2380   90.7572   13.5936 C.3     1  UNL1        0.1526
     25 C          63.9103   91.5665   12.3739 C.3     1  UNL1        0.0314
     26 N          66.1918   91.9073   14.8624 N.am    1  UNL1       -0.2782
     27 C          64.7689   91.4341   14.8223 C.2     1  UNL1        0.2437
     28 O          63.8771   91.6378   16.0111 O.2     1  UNL1       -0.2731
     29 C          68.1569   93.0203   16.1468 C.3     1  UNL1        0.0233
     30 C          66.7228   92.5842   16.0912 C.3     1  UNL1        0.0935
     31 C          67.0836   91.7037   13.6736 C.3     1  UNL1        0.0935
     32 C          67.1249   92.7318   12.5821 C.3     1  UNL1        0.0233
@<TRIPOS>BOND
     1    29    30    1
     2    30    26    1
     3    26    31    1
     4    31    32    1
     5    26    27   am
     6    27    28    2
     7    27    24    1
     8    24    25    1
     9    24     1    1
    10     1     2    1
    11     2     3    1
    12     3     4   ar
    13     4     5   ar
    14     5     6    1
    15     5     7   ar
    16     7    20    1
    17    20    21    1
    18     7     8   ar
    19     8    12    1
    20    12    13   ar
    21    13    14   ar
    22    14    15   ar
    23    15    16    1
    24    15    17   ar
    25    17    18   ar
    26    18    19    1
    27     8     9   ar
    28     9    10    1
    29    10    11    2
    30    10     1   am
    31     9     3   ar
    32    18    12   ar
    33    21    22    1
    34    21    23    1
@<TRIPOS>MOLECULE
*****
 32 34 0 0 0
SMALL
GASTEIGER

@<TRIPOS>ATOM
      1 N          61.6680   90.4400   10.8857 N.am    1  UNL1       -0.2637
      2 C          62.7214   91.3705   10.3617 C.3     1  UNL1        0.1401
      3 C          63.8407   91.4125   11.3594 C.ar    1  UNL1        0.0830
      4 N          65.1425   92.1575   11.3766 N.ar    1  UNL1       -0.2524
      5 C          66.0827   91.9980   12.5345 C.ar    1  UNL1        0.0563
      6 C          67.3845   92.7430   12.5516 C.3     1  UNL1        0.0518
      7 C          65.7211   91.0935   13.6751 C.ar    1  UNL1        0.0072
      8 C          64.4193   90.3485   13.6579 C.ar    1  UNL1        0.0048
      9 C          63.4791   90.5080   12.5001 C.ar    1  UNL1        0.0686
     10 C          62.1363   89.9070   12.2073 C.2     1  UNL1        0.2508
     11 O          61.3924   88.9423   13.0825 O.2     1  UNL1       -0.2698
     12 C          64.0577   89.4439   14.7985 C.ar    1  UNL1        0.0106
     13 C          64.2258   87.9598   14.6612 C.ar    1  UNL1        0.0017
     14 C          63.8642   87.0552   15.8018 C.ar    1  UNL1        0.0114
     15 C          63.3344   87.6349   17.0798 C.ar    1  UNL1        0.0585
     16 CL         62.9728   86.7304   18.2205 Cl      1  UNL1       -0.0822
     17 C          63.1663   89.1191   17.2172 C.ar    1  UNL1        0.0228
     18 C          63.5279   90.0237   16.0766 C.ar    1  UNL1        0.0585
     19 CL         63.3598   91.5078   16.2139 Cl      1  UNL1       -0.0822
     20 C          66.6613   90.9340   14.8329 C.3     1  UNL1        0.0934
     21 N          66.9320   92.0940   15.7445 N.3     1  UNL1       -0.3174
     22 H          67.4200   92.8257   15.2279 H       1  UNL1        0.1192
     23 H          67.5111   91.7850   16.5252 H       1  UNL1        0.1192
     24 C          60.3736   90.1020   10.2073 C.3     1  UNL1        0.1526
     25 C          59.0910   90.7087   10.6939 C.3     1  UNL1        0.0314
     26 N          60.5317   87.6843    9.2694 N.am    1  UNL1       -0.2782
     27 C          60.3618   89.1573    9.0423 C.2     1  UNL1        0.2437
     28 O          60.1801   89.6855    7.6501 O.2     1  UNL1       -0.2731
     29 C          59.2171   86.3320    7.4824 C.3     1  UNL1        0.0233
     30 C          60.5199   86.7396    8.1043 C.3     1  UNL1        0.0935
     31 C          60.7134   87.1561   10.6614 C.3     1  UNL1        0.0935
     32 C          61.6670   86.0267   10.9166 C.3     1  UNL1        0.0233
@<TRIPOS>BOND
     1    29    30    1
     2    30    26    1
     3    26    31    1
     4    31    32    1
     5    26    27   am
     6    27    28    2
     7    27    24    1
     8    24    25    1
     9    24     1    1
    10     1     2    1
    11     2     3    1
    12     3     4   ar
    13     4     5   ar
    14     5     6    1
    15     5     7   ar
    16     7    20    1
    17    20    21    1
    18     7     8   ar
    19     8    12    1
    20    12    13   ar
    21    13    14   ar
    22    14    15   ar
    23    15    16    1
    24    15    17   ar
    25    17    18   ar
    26    18    19    1
    27     8     9   ar
    28     9    10    1
    29    10    11    2
    30    10     1   am
    31     9     3   ar
    32    18    12   ar
    33    21    22    1
    34    21    23    1
@<TRIPOS>MOLECULE
*****
 32 34 0 0 0
SMALL
GASTEIGER

@<TRIPOS>ATOM
      1 N          64.0949   89.3485   13.6908 N.am    1  UNL1       -0.2637
      2 C          64.5465   88.3245   14.6896 C.3     1  UNL1        0.1401
      3 C          64.1108   86.9754   14.1996 C.ar    1  UNL1        0.0830
      4 N          64.2774   85.5983   14.7705 N.ar    1  UNL1       -0.2524
      5 C          63.7230   84.4113   14.0398 C.ar    1  UNL1        0.0563
      6 C          63.8896   83.0343   14.6107 C.3     1  UNL1        0.0518
      7 C          63.0022   84.6015   12.7381 C.ar    1  UNL1        0.0072
      8 C          62.8356   85.9786   12.1673 C.ar    1  UNL1        0.0048
      9 C          63.3899   87.1655   12.8980 C.ar    1  UNL1        0.0686
     10 C          63.3801   88.6322   12.5835 C.2     1  UNL1        0.2508
     11 O          62.7637   89.2704   11.3741 O.2     1  UNL1       -0.2698
     12 C          62.1148   86.1688   10.8656 C.ar    1  UNL1        0.0106
     13 C          62.6870   85.5997    9.6013 C.ar    1  UNL1        0.0017
     14 C          61.9661   85.7898    8.2997 C.ar    1  UNL1        0.0114
     15 C          60.6731   86.5491    8.2624 C.ar    1  UNL1        0.0585
     16 CL         59.9522   86.7393    6.9608 Cl      1  UNL1       -0.0822
     17 C          60.1008   87.1183    9.5268 C.ar    1  UNL1        0.0228
     18 C          60.8217   86.9281   10.8284 C.ar    1  UNL1        0.0585
     19 CL         60.2495   87.4973   12.0928 Cl      1  UNL1       -0.0822
     20 C          62.4479   83.4146   12.0074 C.3     1  UNL1        0.0934
     21 N          63.3610   82.5314   11.2099 N.3     1  UNL1       -0.3174
     22 H          63.7385   83.0564   10.4211 H       1  UNL1        0.1192
     23 H          62.8387   81.7265   10.8639 H       1  UNL1        0.1192
     24 C          64.3187   90.8288   13.7831 C.3     1  UNL1        0.1526
     25 C          64.0553   91.5482   15.0726 C.3     1  UNL1        0.0314
     26 N          66.2195   92.0896   12.5392 N.am    1  UNL1       -0.2782
     27 C          64.8061   91.5897   12.5858 C.2     1  UNL1        0.2437
     28 O          63.8799   91.8507   11.4351 O.2     1  UNL1       -0.2731
     29 C          67.6694   92.2095   10.3866 C.3     1  UNL1        0.0233
     30 C          66.7068   92.8506   11.3419 C.3     1  UNL1        0.0935
     31 C          67.1457   91.8287   13.6899 C.3     1  UNL1        0.0935
     32 C          67.5149   92.9434   14.6232 C.3     1  UNL1        0.0233
@<TRIPOS>BOND
     1    29    30    1
     2    30    26    1
     3    26    31    1
     4    31    32    1
     5    26    27   am
     6    27    28    2
     7    27    24    1
     8    24    25    1
     9    24     1    1
    10     1     2    1
    11     2     3    1
    12     3     4   ar
    13     4     5   ar
    14     5     6    1
    15     5     7   ar
    16     7    20    1
    17    20    21    1
    18     7     8   ar
    19     8    12    1
    20    12    13   ar
    21    13    14   ar
    22    14    15   ar
    23    15    16    1
    24    15    17   ar
    25    17    18   ar
    26    18    19    1
    27     8     9   ar
    28     9    10    1
    29    10    11    2
    30    10     1   am
    31     9     3   ar
    32    18    12   ar
    33    21    22    1
    34    21    23    1
@<TRIPOS>MOLECULE
*****
 32 34 0 0 0
SMALL
GASTEIGER

@<TRIPOS>ATOM
      1 N          63.1930   89.5021   12.8928 N.am    1  UNL1       -0.2637
      2 C          62.3515   90.3824   12.0170 C.3     1  UNL1        0.1401
      3 C          61.7677   89.5313   10.9285 C.ar    1  UNL1        0.0830
      4 N          60.8605   89.8552    9.7787 N.ar    1  UNL1       -0.2524
      5 C          60.4339   88.7727    8.8319 C.ar    1  UNL1        0.0563
      6 C          59.5268   89.0966    7.6821 C.3     1  UNL1        0.0518
      7 C          60.9145   87.3664    9.0351 C.ar    1  UNL1        0.0072
      8 C          61.8217   87.0425   10.1849 C.ar    1  UNL1        0.0048
      9 C          62.2482   88.1249   11.1317 C.ar    1  UNL1        0.0686
     10 C          63.1291   88.1069   12.3456 C.2     1  UNL1        0.2508
     11 O          63.8241   86.9047   12.9128 O.2     1  UNL1       -0.2698
     12 C          62.3022   85.6362   10.3881 C.ar    1  UNL1        0.0106
     13 C          61.9135   84.8820   11.6250 C.ar    1  UNL1        0.0017
     14 C          62.3940   83.4757   11.8281 C.ar    1  UNL1        0.0114
     15 C          63.2634   82.8235   10.7943 C.ar    1  UNL1        0.0585
     16 CL         63.7439   81.4171   10.9974 Cl      1  UNL1       -0.0822
     17 C          63.6522   83.5776    9.5572 C.ar    1  UNL1        0.0228
     18 C          63.1716   84.9840    9.3541 C.ar    1  UNL1        0.0585
     19 CL         63.5604   85.7381    8.1172 Cl      1  UNL1       -0.0822
     20 C          60.4879   86.2839    8.0883 C.3     1  UNL1        0.0934
     21 N          59.0397   86.1290    7.7298 N.3     1  UNL1       -0.3174
     22 H          58.5126   85.8497    8.5572 H       1  UNL1        0.1192
     23 H          58.9426   85.4151    7.0078 H       1  UNL1        0.1192
     24 C          63.9630   89.9400   14.1033 C.3     1  UNL1        0.1526
     25 C          65.2494   90.6942   13.9415 C.3     1  UNL1        0.0314
     26 N          63.6300   88.2493   16.0476 N.am    1  UNL1       -0.2782
     27 C          63.4466   89.6238   15.4756 C.2     1  UNL1        0.2437
     28 O          62.7469   90.6820   16.2760 O.2     1  UNL1       -0.2731
     29 C          62.3711   86.6530   17.6654 C.3     1  UNL1        0.0233
     30 C          63.1136   87.9330   17.4200 C.3     1  UNL1        0.0935
     31 C          64.3297   87.1911   15.2473 C.3     1  UNL1        0.0935
     32 C          64.2987   85.7625   15.7035 C.3     1  UNL1        0.0233
@<TRIPOS>BOND
     1    29    30    1
     2    30    26    1
     3    26    31    1
     4    31    32    1
     5    26    27   am
     6    27    28    2
     7    27    24    1
     8    24    25    1
     9    24     1    1
    10     1     2    1
    11     2     3    1
    12     3     4   ar
    13     4     5   ar
    14     5     6    1
    15     5     7   ar
    16     7    20    1
    17    20    21    1
    18     7     8   ar
    19     8    12    1
    20    12    13   ar
    21    13    14   ar
    22    14    15   ar
    23    15    16    1
    24    15    17   ar
    25    17    18   ar
    26    18    19    1
    27     8     9   ar
    28     9    10    1
    29    10    11    2
    30    10     1   am
    31     9     3   ar
    32    18    12   ar
    33    21    22    1
    34    21    23    1
@<TRIPOS>MOLECULE
*****
 32 34 0 0 0
SMALL
GASTEIGER

@<TRIPOS>ATOM
      1 N          62.9368   90.2466   11.5906 N.am    1  UNL1       -0.2637
      2 C          61.9560   90.8080   10.6042 C.3     1  UNL1        0.1401
      3 C          61.3387   89.6610    9.8603 C.ar    1  UNL1        0.0830
      4 N          60.3083   89.6092    8.7714 N.ar    1  UNL1       -0.2524
      5 C          59.8771   88.2870    8.2092 C.ar    1  UNL1        0.0563
      6 C          58.8468   88.2352    7.1204 C.3     1  UNL1        0.0518
      7 C          60.4763   87.0167    8.7359 C.ar    1  UNL1        0.0072
      8 C          61.5067   87.0686    9.8248 C.ar    1  UNL1        0.0048
      9 C          61.9378   88.3907   10.3870 C.ar    1  UNL1        0.0686
     10 C          62.9255   88.7527   11.4563 C.2     1  UNL1        0.2508
     11 O          63.7561   87.7897   12.2518 O.2     1  UNL1       -0.2698
     12 C          62.1059   85.7984   10.3515 C.ar    1  UNL1        0.0106
     13 C          61.7619   85.3228   11.7319 C.ar    1  UNL1        0.0017
     14 C          62.3611   84.0525   12.2585 C.ar    1  UNL1        0.0114
     15 C          63.3043   83.2578   11.4048 C.ar    1  UNL1        0.0585
     16 CL         63.9035   81.9876   11.9315 Cl      1  UNL1       -0.0822
     17 C          63.6483   83.7334   10.0244 C.ar    1  UNL1        0.0228
     18 C          63.0491   85.0037    9.4977 C.ar    1  UNL1        0.0585
     19 CL         63.3931   85.4792    8.1173 Cl      1  UNL1       -0.0822
     20 C          60.0451   85.6946    8.1737 C.3     1  UNL1        0.0934
     21 N          60.4335   85.3112    6.7765 N.3     1  UNL1       -0.3174
     22 H          59.9760   85.9363    6.1129 H       1  UNL1        0.1192
     23 H          60.1431   84.3506    6.5944 H       1  UNL1        0.1192
     24 C          63.7806   91.0399   12.5438 C.3     1  UNL1        0.1526
     25 C          64.8012   92.0049   12.0175 C.3     1  UNL1        0.0314
     26 N          64.6000   91.4660   14.9722 N.am    1  UNL1       -0.2782
     27 C          63.6038   90.8681   14.0234 C.2     1  UNL1        0.2437
     28 O          62.4309   90.0984   14.5543 O.2     1  UNL1       -0.2731
     29 C          64.6615   92.4522   17.3750 C.3     1  UNL1        0.0233
     30 C          64.4232   91.2942   16.4518 C.3     1  UNL1        0.0935
     31 C          65.7729   92.2357   14.4413 C.3     1  UNL1        0.0935
     32 C          67.1659   91.7220   14.6551 C.3     1  UNL1        0.0233
@<TRIPOS>BOND
     1    29    30    1
     2    30    26    1
     3    26    31    1
     4    31    32    1
     5    26    27   am
     6    27    28    2
     7    27    24    1
     8    24    25    1
     9    24     1    1
    10     1     2    1
    11     2     3    1
    12     3     4   ar
    13     4     5   ar
    14     5     6    1
    15     5     7   ar
    16     7    20    1
    17    20    21    1
    18     7     8   ar
    19     8    12    1
    20    12    13   ar
    21    13    14   ar
    22    14    15   ar
    23    15    16    1
    24    15    17   ar
    25    17    18   ar
    26    18    19    1
    27     8     9   ar
    28     9    10    1
    29    10    11    2
    30    10     1   am
    31     9     3   ar
    32    18    12   ar
    33    21    22    1
    34    21    23    1
