@<TRIPOS>MOLECULE
*****
 29 30 0 0 0
SMALL
GASTEIGER

@<TRIPOS>ATOM
      1 C          63.8874   90.1131   14.3806 C.3     1  UNL1        0.1759
      2 N          64.1611   91.2601   13.4536 N.am    1  UNL1       -0.2954
      3 C          65.5347   91.8589   13.3864 C.2     1  UNL1        0.2368
      4 O          66.6347   91.3107   14.2463 O.2     1  UNL1       -0.2737
      5 H          63.4391   91.6199   12.8892 H       1  UNL1        0.1499
      6 C          65.8083   93.0059   12.4593 C.3     1  UNL1        0.1283
      7 N          66.0623   94.3757   13.0155 N.3     1  UNL1       -0.3150
      8 H          66.2284   95.0283   12.2494 H       1  UNL1        0.1192
      9 H          66.8809   94.3494   13.6234 H       1  UNL1        0.1192
     10 C          65.8281   92.7832   10.9761 C.3     1  UNL1        0.0248
     11 C          67.0549   93.1236   10.1829 C.3     1  UNL1        0.0018
     12 C          67.2355   94.5096    9.6387 C.3     1  UNL1        0.0001
     13 C          68.1010   92.0778    9.9338 C.3     1  UNL1        0.0001
     14 C          63.2791   90.3665   15.7281 C.2     1  UNL1        0.3353
     15 O          63.5175   91.6733   16.4249 O.2     1  UNL1       -0.2483
     16 O          62.4325   89.3131   16.3789 O.3     1  UNL1       -0.4474
     17 C          62.7237   86.8649   17.1985 C.3     1  UNL1        0.0513
     18 C          63.0569   88.3227   17.3166 C.3     1  UNL1        0.2086
     19 C          64.2220   88.7126   13.9601 C.3     1  UNL1        0.0590
     20 C          63.4619   88.0635   12.8416 C.ar    1  UNL1       -0.0014
     21 C          62.7535   88.7754   11.7275 C.ar    1  UNL1        0.0717
     22 N          62.1306   87.7404   10.8382 N.ar    1  UNL1       -0.3243
     23 C          61.3256   88.0097    9.6016 C.3     1  UNL1        0.1305
     24 C          62.4541   86.3889   11.4027 C.ar    1  UNL1        0.0597
     25 C          62.1058   85.0022   10.9493 C.ar    1  UNL1        0.0172
     26 C          62.5802   83.8151   11.7340 C.ar    1  UNL1        0.0015
     27 C          63.4030   84.0148   12.9722 C.ar    1  UNL1        0.0001
     28 C          63.7514   85.4015   13.4256 C.ar    1  UNL1        0.0012
     29 C          63.2769   86.5885   12.6409 C.ar    1  UNL1        0.0133
@<TRIPOS>BOND
     1    17    18    1
     2    18    16    1
     3    16    14    1
     4    14    15    2
     5    14     1    1
     6     1    19    1
     7    19    20    1
     8    20    21   ar
     9    21    22   ar
    10    22    23    1
    11    22    24   ar
    12    24    25   ar
    13    25    26   ar
    14    26    27   ar
    15    27    28   ar
    16    28    29   ar
    17     1     2    1
    18     2     3   am
    19     3     4    2
    20     3     6    1
    21     6     7    1
    22     6    10    1
    23    10    11    1
    24    11    12    1
    25    11    13    1
    26    29    20   ar
    27    29    24   ar
    28     2     5    1
    29     7     8    1
    30     7     9    1
@<TRIPOS>MOLECULE
*****
 29 30 0 0 0
SMALL
GASTEIGER

@<TRIPOS>ATOM
      1 C          63.4004   84.5479   12.8355 C.3     1  UNL1        0.1759
      2 N          62.3913   85.5490   12.3565 N.am    1  UNL1       -0.2954
      3 C          62.2341   85.8119   10.8882 C.2     1  UNL1        0.2368
      4 O          63.0861   85.0736    9.8987 O.2     1  UNL1       -0.2737
      5 H          61.8321   86.0335   13.0060 H       1  UNL1        0.1499
      6 C          61.2250   86.8130   10.4092 C.3     1  UNL1        0.1283
      7 N          60.2441   87.4098   11.3745 N.3     1  UNL1       -0.3150
      8 H          59.6378   88.0653   10.8814 H       1  UNL1        0.1192
      9 H          60.7490   87.9022   12.1114 H       1  UNL1        0.1192
     10 C          61.1966   87.2172    8.9650 C.3     1  UNL1        0.0248
     11 C          60.3485   86.4560    7.9896 C.3     1  UNL1        0.0018
     12 C          58.8926   86.7861    7.8445 C.3     1  UNL1        0.0001
     13 C          60.9564   85.3646    7.1594 C.3     1  UNL1        0.0001
     14 C          63.4418   83.1761   12.2300 C.2     1  UNL1        0.3353
     15 O          64.7237   82.6468   11.6587 O.2     1  UNL1       -0.2483
     16 O          62.2012   82.3337   12.1960 O.3     1  UNL1       -0.4474
     17 C          62.4395   80.0435   13.3995 C.3     1  UNL1        0.0513
     18 C          61.8748   81.4324   13.3497 C.3     1  UNL1        0.2086
     19 C          64.3683   84.9186   13.9199 C.3     1  UNL1        0.0590
     20 C          63.9439   85.8474   15.0187 C.ar    1  UNL1       -0.0014
     21 C          63.4660   85.4410   16.3812 C.ar    1  UNL1        0.0717
     22 N          63.1496   86.6881   17.1524 N.ar    1  UNL1       -0.3243
     23 C          62.6402   86.7477   18.5620 C.3     1  UNL1        0.1305
     24 C          63.4320   87.8652   16.2665 C.ar    1  UNL1        0.0597
     25 C          63.3056   89.3429   16.4902 C.ar    1  UNL1        0.0172
     26 C          63.6700   90.3011   15.3952 C.ar    1  UNL1        0.0015
     27 C          64.1610   89.7815   14.0765 C.ar    1  UNL1        0.0001
     28 C          64.2874   88.3037   13.8528 C.ar    1  UNL1        0.0012
     29 C          63.9229   87.3455   14.9478 C.ar    1  UNL1        0.0133
@<TRIPOS>BOND
     1    17    18    1
     2    18    16    1
     3    16    14    1
     4    14    15    2
     5    14     1    1
     6     1    19    1
     7    19    20    1
     8    20    21   ar
     9    21    22   ar
    10    22    23    1
    11    22    24   ar
    12    24    25   ar
    13    25    26   ar
    14    26    27   ar
    15    27    28   ar
    16    28    29   ar
    17     1     2    1
    18     2     3   am
    19     3     4    2
    20     3     6    1
    21     6     7    1
    22     6    10    1
    23    10    11    1
    24    11    12    1
    25    11    13    1
    26    29    20   ar
    27    29    24   ar
    28     2     5    1
    29     7     8    1
    30     7     9    1
@<TRIPOS>MOLECULE
*****
 29 30 0 0 0
SMALL
GASTEIGER

@<TRIPOS>ATOM
      1 C          61.8318   89.1957    9.8406 C.3     1  UNL1        0.1759
      2 N          62.4131   87.8203    9.6982 N.am    1  UNL1       -0.2954
      3 C          61.9605   86.7169   10.6079 C.2     1  UNL1        0.2368
      4 O          60.9266   86.9889   11.6600 O.2     1  UNL1       -0.2737
      5 H          63.0917   87.6417    9.0076 H       1  UNL1        0.1499
      6 C          62.5418   85.3414   10.4655 C.3     1  UNL1        0.1283
      7 N          63.1667   84.9219    9.1680 N.3     1  UNL1       -0.3150
      8 H          63.5074   83.9639    9.2488 H       1  UNL1        0.1192
      9 H          63.9461   85.5426    8.9496 H       1  UNL1        0.1192
     10 C          62.4982   84.3855   11.6206 C.3     1  UNL1        0.0248
     11 C          63.7645   83.7572   12.1224 C.3     1  UNL1        0.0018
     12 C          64.3817   84.2337   13.4037 C.3     1  UNL1        0.0001
     13 C          64.4136   82.6523   11.3427 C.3     1  UNL1        0.0001
     14 C          60.3578   89.4092    9.6623 C.2     1  UNL1        0.3353
     15 O          59.5779   90.1605   10.7001 O.2     1  UNL1       -0.2483
     16 O          59.6639   88.8712    8.4462 O.3     1  UNL1       -0.4474
     17 C          59.7635   86.3743    7.7349 C.3     1  UNL1        0.0513
     18 C          59.0782   87.4904    8.4662 C.3     1  UNL1        0.2086
     19 C          62.7246   90.3578   10.1612 C.3     1  UNL1        0.0590
     20 C          63.2756   90.5202   11.5469 C.ar    1  UNL1       -0.0014
     21 C          62.8164   89.7837   12.7703 C.ar    1  UNL1        0.0717
     22 N          63.6396   90.2560   13.9318 N.ar    1  UNL1       -0.3243
     23 C          63.5165   89.7830   15.3500 C.3     1  UNL1        0.1305
     24 C          64.6075   91.2844   13.4264 C.ar    1  UNL1        0.0597
     25 C          65.6647   92.0932   14.1178 C.ar    1  UNL1        0.0172
     26 C          66.4969   93.0653   13.3353 C.ar    1  UNL1        0.0015
     27 C          66.2719   93.2286   11.8613 C.ar    1  UNL1        0.0001
     28 C          65.2148   92.4198   11.1698 C.ar    1  UNL1        0.0012
     29 C          64.3826   91.4477   11.9523 C.ar    1  UNL1        0.0133
@<TRIPOS>BOND
     1    17    18    1
     2    18    16    1
     3    16    14    1
     4    14    15    2
     5    14     1    1
     6     1    19    1
     7    19    20    1
     8    20    21   ar
     9    21    22   ar
    10    22    23    1
    11    22    24   ar
    12    24    25   ar
    13    25    26   ar
    14    26    27   ar
    15    27    28   ar
    16    28    29   ar
    17     1     2    1
    18     2     3   am
    19     3     4    2
    20     3     6    1
    21     6     7    1
    22     6    10    1
    23    10    11    1
    24    11    12    1
    25    11    13    1
    26    29    20   ar
    27    29    24   ar
    28     2     5    1
    29     7     8    1
    30     7     9    1
@<TRIPOS>MOLECULE
*****
 29 30 0 0 0
SMALL
GASTEIGER

@<TRIPOS>ATOM
      1 C          63.0682   84.2428   11.1644 C.3     1  UNL1        0.1759
      2 N          62.7045   84.8499   12.4870 N.am    1  UNL1       -0.2954
      3 C          63.6239   84.6943   13.6619 C.2     1  UNL1        0.2368
      4 O          64.9071   83.9317   13.5142 O.2     1  UNL1       -0.2737
      5 H          61.8623   85.3504   12.5839 H       1  UNL1        0.1499
      6 C          63.2602   85.3014   14.9845 C.3     1  UNL1        0.1283
      7 N          61.9614   84.9417   15.6430 N.3     1  UNL1       -0.3150
      8 H          61.8785   85.4427   16.5276 H       1  UNL1        0.1192
      9 H          61.9354   83.9371   15.8175 H       1  UNL1        0.1192
     10 C          64.1953   86.2681   15.6485 C.3     1  UNL1        0.0248
     11 C          63.8501   87.7267   15.7052 C.3     1  UNL1        0.0018
     12 C          64.3069   88.6486   14.6137 C.3     1  UNL1        0.0001
     13 C          63.0480   88.2635   16.8535 C.3     1  UNL1        0.0001
     14 C          63.3363   82.7704   11.0633 C.2     1  UNL1        0.3353
     15 O          64.5611   82.2782   10.3508 O.2     1  UNL1       -0.2483
     16 O          62.3795   81.7903   11.6747 O.3     1  UNL1       -0.4474
     17 C          61.8559   81.4247   14.1932 C.3     1  UNL1        0.0513
     18 C          62.7052   81.1444   12.9888 C.3     1  UNL1        0.2086
     19 C          63.1639   85.1082    9.9429 C.3     1  UNL1        0.0590
     20 C          62.0573   86.0658    9.6136 C.ar    1  UNL1       -0.0014
     21 C          60.9638   85.8389    8.6122 C.ar    1  UNL1        0.0717
     22 N          60.0806   87.0513    8.6077 N.ar    1  UNL1       -0.3243
     23 C          58.8634   87.2522    7.7544 C.3     1  UNL1        0.1305
     24 C          60.6283   88.0275    9.6062 C.ar    1  UNL1        0.0597
     25 C          60.1724   89.3923   10.0296 C.ar    1  UNL1        0.0172
     26 C          60.9381   90.1481   11.0748 C.ar    1  UNL1        0.0015
     27 C          62.1598   89.5390   11.6965 C.ar    1  UNL1        0.0001
     28 C          62.6157   88.1742   11.2730 C.ar    1  UNL1        0.0012
     29 C          61.8500   87.4184   10.2279 C.ar    1  UNL1        0.0133
@<TRIPOS>BOND
     1    17    18    1
     2    18    16    1
     3    16    14    1
     4    14    15    2
     5    14     1    1
     6     1    19    1
     7    19    20    1
     8    20    21   ar
     9    21    22   ar
    10    22    23    1
    11    22    24   ar
    12    24    25   ar
    13    25    26   ar
    14    26    27   ar
    15    27    28   ar
    16    28    29   ar
    17     1     2    1
    18     2     3   am
    19     3     4    2
    20     3     6    1
    21     6     7    1
    22     6    10    1
    23    10    11    1
    24    11    12    1
    25    11    13    1
    26    29    20   ar
    27    29    24   ar
    28     2     5    1
    29     7     8    1
    30     7     9    1
@<TRIPOS>MOLECULE
*****
 29 30 0 0 0
SMALL
GASTEIGER

@<TRIPOS>ATOM
      1 C          63.3014   89.9354   14.5130 C.3     1  UNL1        0.1759
      2 N          62.2410   90.0405   13.4574 N.am    1  UNL1       -0.2954
      3 C          62.1980   89.0455   12.3357 C.2     1  UNL1        0.2368
      4 O          63.2155   87.9454   12.2698 O.2     1  UNL1       -0.2737
      5 H          61.5732   90.7626   13.5007 H       1  UNL1        0.1499
      6 C          61.1376   89.1506   11.2801 C.3     1  UNL1        0.1283
      7 N          60.8775   90.4654   10.6066 N.3     1  UNL1       -0.3150
      8 H          60.1298   90.3546    9.9217 H       1  UNL1        0.1192
      9 H          61.7259   90.7800   10.1358 H       1  UNL1        0.1192
     10 C          60.3373   87.9409   10.8979 C.3     1  UNL1        0.0248
     11 C          60.5765   87.2697    9.5779 C.3     1  UNL1        0.0018
     12 C          59.4823   87.2189    8.5532 C.3     1  UNL1        0.0001
     13 C          61.9099   86.6494    9.2826 C.3     1  UNL1        0.0001
     14 C          62.9139   89.8531   15.9598 C.2     1  UNL1        0.3353
     15 O          63.1576   91.0209   16.8691 O.2     1  UNL1       -0.2483
     16 O          62.2827   88.6030   16.4971 O.3     1  UNL1       -0.4474
     17 C          62.5822   86.4414   17.9071 C.3     1  UNL1        0.0513
     18 C          63.1456   87.4729   16.9751 C.3     1  UNL1        0.2086
     19 C          64.7494   89.9126   14.1219 C.3     1  UNL1        0.0590
     20 C          65.5202   91.1957   14.0244 C.ar    1  UNL1       -0.0014
     21 C          66.4139   91.7701   15.0833 C.ar    1  UNL1        0.0717
     22 N          66.9786   93.0591   14.5641 N.ar    1  UNL1       -0.3243
     23 C          67.9224   93.9665   15.2962 C.3     1  UNL1        0.1305
     24 C          66.4340   93.2814   13.1843 C.ar    1  UNL1        0.0597
     25 C          66.6423   94.3836   12.1885 C.ar    1  UNL1        0.0172
     26 C          65.9493   94.3342   10.8591 C.ar    1  UNL1        0.0015
     27 C          65.0479   93.1825   10.5255 C.ar    1  UNL1        0.0001
     28 C          64.8396   92.0803   11.5213 C.ar    1  UNL1        0.0012
     29 C          65.5326   92.1297   12.8507 C.ar    1  UNL1        0.0133
@<TRIPOS>BOND
     1    17    18    1
     2    18    16    1
     3    16    14    1
     4    14    15    2
     5    14     1    1
     6     1    19    1
     7    19    20    1
     8    20    21   ar
     9    21    22   ar
    10    22    23    1
    11    22    24   ar
    12    24    25   ar
    13    25    26   ar
    14    26    27   ar
    15    27    28   ar
    16    28    29   ar
    17     1     2    1
    18     2     3   am
    19     3     4    2
    20     3     6    1
    21     6     7    1
    22     6    10    1
    23    10    11    1
    24    11    12    1
    25    11    13    1
    26    29    20   ar
    27    29    24   ar
    28     2     5    1
    29     7     8    1
    30     7     9    1
@<TRIPOS>MOLECULE
*****
 29 30 0 0 0
SMALL
GASTEIGER

@<TRIPOS>ATOM
      1 C          62.9325   84.0480   11.5931 C.3     1  UNL1        0.1759
      2 N          62.5701   84.6752   12.9066 N.am    1  UNL1       -0.2954
      3 C          63.5816   84.7378   14.0124 C.2     1  UNL1        0.2368
      4 O          64.9556   84.1730   13.8047 O.2     1  UNL1       -0.2737
      5 H          61.6682   85.0459   13.0429 H       1  UNL1        0.1499
      6 C          63.2192   85.3650   15.3259 C.3     1  UNL1        0.1283
      7 N          61.9616   84.9529   16.0322 N.3     1  UNL1       -0.3150
      8 H          61.8738   85.4764   16.9032 H       1  UNL1        0.1192
      9 H          61.9987   83.9546   16.2378 H       1  UNL1        0.1192
     10 C          64.1142   86.4043   15.9330 C.3     1  UNL1        0.0248
     11 C          63.8163   87.8606   15.7322 C.3     1  UNL1        0.0018
     12 C          64.2605   88.5510   14.4768 C.3     1  UNL1        0.0001
     13 C          63.0740   88.6267   16.7869 C.3     1  UNL1        0.0001
     14 C          63.4263   82.6323   11.5489 C.2     1  UNL1        0.3353
     15 O          64.8291   82.3408   11.1051 O.2     1  UNL1       -0.2483
     16 O          62.5172   81.5081   11.9486 O.3     1  UNL1       -0.4474
     17 C          61.2708   81.1453   14.1992 C.3     1  UNL1        0.0513
     18 C          62.5112   81.0160   13.3656 C.3     1  UNL1        0.2086
     19 C          62.8011   84.8365   10.3238 C.3     1  UNL1        0.0590
     20 C          62.2219   86.2198   10.3567 C.ar    1  UNL1       -0.0014
     21 C          62.5421   87.2860   11.3620 C.ar    1  UNL1        0.0717
     22 N          61.7389   88.5048   11.0166 N.ar    1  UNL1       -0.3243
     23 C          61.7502   89.8079   11.7595 C.3     1  UNL1        0.1305
     24 C          60.9223   88.1919    9.7979 C.ar    1  UNL1        0.0597
     25 C          59.9455   89.0104    9.0069 C.ar    1  UNL1        0.0172
     26 C          59.2672   88.4167    7.8080 C.ar    1  UNL1        0.0015
     27 C          59.5657   87.0044    7.4001 C.ar    1  UNL1        0.0001
     28 C          60.5425   86.1859    8.1911 C.ar    1  UNL1        0.0012
     29 C          61.2208   86.7796    9.3900 C.ar    1  UNL1        0.0133
@<TRIPOS>BOND
     1    17    18    1
     2    18    16    1
     3    16    14    1
     4    14    15    2
     5    14     1    1
     6     1    19    1
     7    19    20    1
     8    20    21   ar
     9    21    22   ar
    10    22    23    1
    11    22    24   ar
    12    24    25   ar
    13    25    26   ar
    14    26    27   ar
    15    27    28   ar
    16    28    29   ar
    17     1     2    1
    18     2     3   am
    19     3     4    2
    20     3     6    1
    21     6     7    1
    22     6    10    1
    23    10    11    1
    24    11    12    1
    25    11    13    1
    26    29    20   ar
    27    29    24   ar
    28     2     5    1
    29     7     8    1
    30     7     9    1
@<TRIPOS>MOLECULE
*****
 29 30 0 0 0
SMALL
GASTEIGER

@<TRIPOS>ATOM
      1 C          64.0570   88.7731   14.9255 C.3     1  UNL1        0.1759
      2 N          64.7524   87.4549   15.0955 N.am    1  UNL1       -0.2954
      3 C          64.3501   86.2806   14.2534 C.2     1  UNL1        0.2368
      4 O          63.2525   86.4245   13.2412 O.2     1  UNL1       -0.2737
      5 H          65.4727   87.3605   15.7599 H       1  UNL1        0.1499
      6 C          65.0454   84.9624   14.4234 C.3     1  UNL1        0.1283
      7 N          66.5439   84.9035   14.4555 N.3     1  UNL1       -0.3150
      8 H          66.8437   83.9361   14.5768 H       1  UNL1        0.1192
      9 H          66.8898   85.4666   15.2325 H       1  UNL1        0.1192
     10 C          64.2422   83.7031   14.5614 C.3     1  UNL1        0.0248
     11 C          63.7833   82.9683   13.3369 C.3     1  UNL1        0.0018
     12 C          62.7200   81.9162   13.4480 C.3     1  UNL1        0.0001
     13 C          64.3877   83.2857   12.0012 C.3     1  UNL1        0.0001
     14 C          63.1455   89.2845   16.0014 C.2     1  UNL1        0.3353
     15 O          63.2009   90.7272   16.4082 O.2     1  UNL1       -0.2483
     16 O          62.1786   88.3531   16.6704 O.3     1  UNL1       -0.4474
     17 C          62.4260   85.8572   17.3482 C.3     1  UNL1        0.0513
     18 C          62.6802   87.3096   17.6240 C.3     1  UNL1        0.2086
     19 C          64.2733   89.5799   13.6795 C.3     1  UNL1        0.0590
     20 C          65.0849   90.8402   13.7335 C.ar    1  UNL1       -0.0014
     21 C          65.9213   91.3014   14.8901 C.ar    1  UNL1        0.0717
     22 N          66.5559   92.6068   14.5118 N.ar    1  UNL1       -0.3243
     23 C          67.4736   93.4232   15.3727 C.3     1  UNL1        0.1305
     24 C          66.1118   92.9524   13.1214 C.ar    1  UNL1        0.0597
     25 C          66.4177   94.1203   12.2312 C.ar    1  UNL1        0.0172
     26 C          65.8145   94.1963   10.8600 C.ar    1  UNL1        0.0015
     27 C          64.9053   93.1045   10.3789 C.ar    1  UNL1        0.0001
     28 C          64.5994   91.9366   11.2691 C.ar    1  UNL1        0.0012
     29 C          65.2026   91.8606   12.6404 C.ar    1  UNL1        0.0133
@<TRIPOS>BOND
     1    17    18    1
     2    18    16    1
     3    16    14    1
     4    14    15    2
     5    14     1    1
     6     1    19    1
     7    19    20    1
     8    20    21   ar
     9    21    22   ar
    10    22    23    1
    11    22    24   ar
    12    24    25   ar
    13    25    26   ar
    14    26    27   ar
    15    27    28   ar
    16    28    29   ar
    17     1     2    1
    18     2     3   am
    19     3     4    2
    20     3     6    1
    21     6     7    1
    22     6    10    1
    23    10    11    1
    24    11    12    1
    25    11    13    1
    26    29    20   ar
    27    29    24   ar
    28     2     5    1
    29     7     8    1
    30     7     9    1
@<TRIPOS>MOLECULE
*****
 29 30 0 0 0
SMALL
GASTEIGER

@<TRIPOS>ATOM
      1 C          62.9173   88.8421   12.2088 C.3     1  UNL1        0.1759
      2 N          62.4188   88.6067   10.8138 N.am    1  UNL1       -0.2954
      3 C          60.9910   88.2081   10.5848 C.2     1  UNL1        0.2368
      4 O          60.0617   88.0449   11.7509 O.2     1  UNL1       -0.2737
      5 H          63.0288   88.7138   10.0485 H       1  UNL1        0.1499
      6 C          60.4925   87.9726    9.1898 C.3     1  UNL1        0.1283
      7 N          60.2097   89.1373    8.2879 N.3     1  UNL1       -0.3150
      8 H          59.8812   88.7959    7.3846 H       1  UNL1        0.1192
      9 H          61.0629   89.6805    8.1563 H       1  UNL1        0.1192
     10 C          60.2769   86.5725    8.6968 C.3     1  UNL1        0.0248
     11 C          61.4087   85.8170    8.0657 C.3     1  UNL1        0.0018
     12 C          62.7482   85.7721    8.7391 C.3     1  UNL1        0.0001
     13 C          61.2009   85.1063    6.7612 C.3     1  UNL1        0.0001
     14 C          63.4434   87.6958   13.0208 C.2     1  UNL1        0.3353
     15 O          64.2129   87.9600   14.2809 O.2     1  UNL1       -0.2483
     16 O          63.1999   86.2852   12.5725 O.3     1  UNL1       -0.4474
     17 C          64.2519   83.9372   12.9337 C.3     1  UNL1        0.0513
     18 C          63.5417   85.1405   13.4796 C.3     1  UNL1        0.2086
     19 C          62.8898   90.2239   12.7920 C.3     1  UNL1        0.0590
     20 C          64.0061   91.1828   12.5017 C.ar    1  UNL1       -0.0014
     21 C          64.3614   91.7409   11.1555 C.ar    1  UNL1        0.0717
     22 N          65.5380   92.6550   11.3285 N.ar    1  UNL1       -0.3243
     23 C          66.2226   93.4268   10.2396 C.3     1  UNL1        0.1305
     24 C          65.9099   92.6619   12.7817 C.ar    1  UNL1        0.0597
     25 C          66.9883   93.3792   13.5383 C.ar    1  UNL1        0.0172
     26 C          67.1199   93.1865   15.0200 C.ar    1  UNL1        0.0015
     27 C          66.1732   92.2767   15.7451 C.ar    1  UNL1        0.0001
     28 C          65.0947   91.5594   14.9885 C.ar    1  UNL1        0.0012
     29 C          64.9631   91.7521   13.5068 C.ar    1  UNL1        0.0133
@<TRIPOS>BOND
     1    17    18    1
     2    18    16    1
     3    16    14    1
     4    14    15    2
     5    14     1    1
     6     1    19    1
     7    19    20    1
     8    20    21   ar
     9    21    22   ar
    10    22    23    1
    11    22    24   ar
    12    24    25   ar
    13    25    26   ar
    14    26    27   ar
    15    27    28   ar
    16    28    29   ar
    17     1     2    1
    18     2     3   am
    19     3     4    2
    20     3     6    1
    21     6     7    1
    22     6    10    1
    23    10    11    1
    24    11    12    1
    25    11    13    1
    26    29    20   ar
    27    29    24   ar
    28     2     5    1
    29     7     8    1
    30     7     9    1
@<TRIPOS>MOLECULE
*****
 29 30 0 0 0
SMALL
GASTEIGER

@<TRIPOS>ATOM
      1 C          64.9005   91.3955   13.5765 C.3     1  UNL1        0.1759
      2 N          63.6532   91.1066   12.7949 N.am    1  UNL1       -0.2954
      3 C          63.1503   89.6983   12.6785 C.2     1  UNL1        0.2368
      4 O          63.8946   88.5788   13.3438 O.2     1  UNL1       -0.2737
      5 H          63.1647   91.8414   12.3583 H       1  UNL1        0.1499
      6 C          61.9030   89.4095   11.8969 C.3     1  UNL1        0.1283
      7 N          60.5634   89.7887   12.4552 N.3     1  UNL1       -0.3150
      8 H          59.8322   89.5205   11.7965 H       1  UNL1        0.1192
      9 H          60.5312   90.7969   12.6068 H       1  UNL1        0.1192
     10 C          61.9953   88.7414   10.5571 C.3     1  UNL1        0.0248
     11 C          61.5520   87.3174   10.3970 C.3     1  UNL1        0.0018
     12 C          62.1279   86.2489   11.2782 C.3     1  UNL1        0.0001
     13 C          60.5326   86.9618    9.3556 C.3     1  UNL1        0.0001
     14 C          64.8490   91.4602   15.0742 C.2     1  UNL1        0.3353
     15 O          63.5299   91.3769   15.7836 O.2     1  UNL1       -0.2483
     16 O          66.1165   91.6082   15.8625 O.3     1  UNL1       -0.4474
     17 C          68.1861   93.1763   15.7727 C.3     1  UNL1        0.0513
     18 C          66.7275   92.9649   16.0522 C.3     1  UNL1        0.2086
     19 C          66.1994   91.6196   12.8603 C.3     1  UNL1        0.0590
     20 C          66.4054   92.8673   12.0536 C.ar    1  UNL1       -0.0014
     21 C          65.9065   94.2374   12.4058 C.ar    1  UNL1        0.0717
     22 N          66.3393   95.1808   11.3229 N.ar    1  UNL1       -0.3243
     23 C          66.0555   96.6528   11.2706 C.3     1  UNL1        0.1305
     24 C          67.1058   94.3938   10.3015 C.ar    1  UNL1        0.0597
     25 C          67.7718   94.7945    9.0186 C.ar    1  UNL1        0.0172
     26 C          68.4786   93.7653    8.1873 C.ar    1  UNL1        0.0015
     27 C          68.5195   92.3355    8.6389 C.ar    1  UNL1        0.0001
     28 C          67.8535   91.9348    9.9218 C.ar    1  UNL1        0.0012
     29 C          67.1467   92.9640   10.7531 C.ar    1  UNL1        0.0133
@<TRIPOS>BOND
     1    17    18    1
     2    18    16    1
     3    16    14    1
     4    14    15    2
     5    14     1    1
     6     1    19    1
     7    19    20    1
     8    20    21   ar
     9    21    22   ar
    10    22    23    1
    11    22    24   ar
    12    24    25   ar
    13    25    26   ar
    14    26    27   ar
    15    27    28   ar
    16    28    29   ar
    17     1     2    1
    18     2     3   am
    19     3     4    2
    20     3     6    1
    21     6     7    1
    22     6    10    1
    23    10    11    1
    24    11    12    1
    25    11    13    1
    26    29    20   ar
    27    29    24   ar
    28     2     5    1
    29     7     8    1
    30     7     9    1
