@<TRIPOS>MOLECULE
*****
 30 31 0 0 0
SMALL
GASTEIGER

@<TRIPOS>ATOM
      1 C          65.0153   91.7432   12.6884 C.ar    1  UNL1        0.0176
      2 C          64.5098   90.9132   13.8310 C.ar    1  UNL1        0.0020
      3 C          63.3137   90.0278   13.6432 C.ar    1  UNL1        0.0373
      4 C          62.6230   89.9724   12.3129 C.ar    1  UNL1        0.1477
      5 C          63.1285   90.8025   11.1703 C.ar    1  UNL1        0.0668
      6 C          64.3247   91.6878   11.3581 C.ar    1  UNL1        0.1401
      7 F          64.8301   92.5179   10.2155 F       1  UNL1       -0.2044
      8 C          66.2115   92.6286   12.8762 C.3     1  UNL1        0.0939
      9 C          66.2256   96.7865   11.1553 C.3     1  UNL1        0.0900
     10 C          66.2209   95.4005   11.7289 C.1     1  UNL1       -0.0897
     11 C          66.2162   94.0145   12.3026 C.1     1  UNL1       -0.0871
     12 C          67.4030   92.1280   13.6376 C.3     1  UNL1        0.0591
     13 C          67.8180   92.8045   14.9104 C.2     1  UNL1        0.0517
     14 O          69.2019   93.3675   15.0438 O.co2   1  UNL1       -0.5491
     15 O          66.8491   92.9180   16.0499 O.co2   1  UNL1       -0.5491
     16 O          61.4268   89.0871   12.1251 O.3     1  UNL1       -0.4504
     17 C          61.3592   88.1569   10.9503 C.ar    1  UNL1        0.1791
     18 C          60.5799   88.5464    9.7292 C.ar    1  UNL1        0.0406
     19 C          60.5123   87.6162    8.5544 C.ar    1  UNL1        0.0072
     20 C          61.2239   86.2966    8.6006 C.ar    1  UNL1        0.0746
     21 C          62.0032   85.9071    9.8217 C.ar    1  UNL1        0.0441
     22 C          62.0708   86.8373   10.9965 C.ar    1  UNL1        0.1785
     23 C          61.1563   85.3664    7.4257 C.3     1  UNL1        0.4187
     24 F          61.0886   84.4363    6.2509 F       1  UNL1       -0.1659
     25 F          62.6354   85.1367    7.5224 F       1  UNL1       -0.1659
     26 F          59.6772   85.5962    7.3290 F       1  UNL1       -0.1659
     27 O          62.8501   86.4478   12.2176 O.3     1  UNL1       -0.4205
     28 C          62.9828   85.0017   12.5930 C.3     1  UNL1        0.5087
     29 F          62.2623   84.4700   13.7963 F       1  UNL1       -0.1550
     30 F          63.8360   84.0871   11.7650 F       1  UNL1       -0.1550
@<TRIPOS>UNITY_ATOM_ATTR
14 1
charge -1
@<TRIPOS>BOND
     1     9    10    1
     2    10    11    3
     3    11     8    1
     4     8    12    1
     5    12    13    1
     6    13    14   ar
     7    13    15   ar
     8     8     1    1
     9     1     2   ar
    10     2     3   ar
    11     3     4   ar
    12     4    16    1
    13    16    17    1
    14    17    18   ar
    15    18    19   ar
    16    19    20   ar
    17    20    23    1
    18    23    24    1
    19    23    25    1
    20    23    26    1
    21    20    21   ar
    22    21    22   ar
    23    22    27    1
    24    27    28    1
    25    28    29    1
    26    28    30    1
    27     4     5   ar
    28     5     6   ar
    29     6     7    1
    30     6     1   ar
    31    22    17   ar
@<TRIPOS>MOLECULE
*****
 30 31 0 0 0
SMALL
GASTEIGER

@<TRIPOS>ATOM
      1 C          65.0354   91.8147   12.4412 C.ar    1  UNL1        0.0176
      2 C          64.7911   90.8693   13.5798 C.ar    1  UNL1        0.0020
      3 C          63.6904   89.8543   13.4889 C.ar    1  UNL1        0.0373
      4 C          62.8341   89.7847   12.2593 C.ar    1  UNL1        0.1477
      5 C          63.0784   90.7301   11.1207 C.ar    1  UNL1        0.0668
      6 C          64.1791   91.7451   11.2117 C.ar    1  UNL1        0.1401
      7 F          64.4234   92.6906   10.0730 F       1  UNL1       -0.2044
      8 C          66.1361   92.8297   12.5321 C.3     1  UNL1        0.0939
      9 C          68.7990   92.9423   16.1579 C.3     1  UNL1        0.0900
     10 C          67.9114   92.9048   14.9493 C.1     1  UNL1       -0.0897
     11 C          67.0237   92.8673   13.7407 C.1     1  UNL1       -0.0871
     12 C          66.3491   93.8072   11.4145 C.3     1  UNL1        0.0591
     13 C          67.3849   93.5323   10.3649 C.2     1  UNL1        0.0517
     14 O          68.1344   94.6688    9.7351 O.co2   1  UNL1       -0.5491
     15 O          67.6711   92.1209    9.9452 O.co2   1  UNL1       -0.5491
     16 O          61.7334   88.7697   12.1684 O.3     1  UNL1       -0.4504
     17 C          61.6375   87.8727   10.9700 C.ar    1  UNL1        0.1791
     18 C          61.0003   88.3733    9.7076 C.ar    1  UNL1        0.0406
     19 C          60.9044   87.4763    8.5092 C.ar    1  UNL1        0.0072
     20 C          61.4456   86.0788    8.5731 C.ar    1  UNL1        0.0746
     21 C          62.0827   85.5782    9.8354 C.ar    1  UNL1        0.0441
     22 C          62.1787   86.4752   11.0339 C.ar    1  UNL1        0.1785
     23 C          61.3497   85.1818    7.3746 C.3     1  UNL1        0.4187
     24 F          61.2538   84.2848    6.1762 F       1  UNL1       -0.1659
     25 F          59.8763   85.4504    7.2915 F       1  UNL1       -0.1659
     26 F          62.8230   84.9132    7.4578 F       1  UNL1       -0.1659
     27 O          62.8158   85.9747   12.2962 O.3     1  UNL1       -0.4205
     28 C          63.2405   84.5402   12.4043 C.3     1  UNL1        0.5087
     29 F          64.6625   84.2023   12.7416 F       1  UNL1       -0.1550
     30 F          62.2432   83.4434   12.1750 F       1  UNL1       -0.1550
@<TRIPOS>UNITY_ATOM_ATTR
14 1
charge -1
@<TRIPOS>BOND
     1     9    10    1
     2    10    11    3
     3    11     8    1
     4     8    12    1
     5    12    13    1
     6    13    14   ar
     7    13    15   ar
     8     8     1    1
     9     1     2   ar
    10     2     3   ar
    11     3     4   ar
    12     4    16    1
    13    16    17    1
    14    17    18   ar
    15    18    19   ar
    16    19    20   ar
    17    20    23    1
    18    23    24    1
    19    23    25    1
    20    23    26    1
    21    20    21   ar
    22    21    22   ar
    23    22    27    1
    24    27    28    1
    25    28    29    1
    26    28    30    1
    27     4     5   ar
    28     5     6   ar
    29     6     7    1
    30     6     1   ar
    31    22    17   ar
@<TRIPOS>MOLECULE
*****
 30 31 0 0 0
SMALL
GASTEIGER

@<TRIPOS>ATOM
      1 C          62.0704   87.8132   10.4879 C.ar    1  UNL1        0.0176
      2 C          61.7381   89.0680    9.7363 C.ar    1  UNL1        0.0020
      3 C          62.1938   90.3982   10.2587 C.ar    1  UNL1        0.0373
      4 C          62.9817   90.4735   11.5328 C.ar    1  UNL1        0.1477
      5 C          63.3140   89.2187   12.2845 C.ar    1  UNL1        0.0668
      6 C          62.8583   87.8885   11.7620 C.ar    1  UNL1        0.1401
      7 F          63.1907   86.6337   12.5137 F       1  UNL1       -0.2044
      8 C          61.6147   86.4830    9.9654 C.3     1  UNL1        0.0939
      9 C          64.3607   82.9240   10.1716 C.3     1  UNL1        0.0900
     10 C          63.4454   84.1103   10.1028 C.1     1  UNL1       -0.0897
     11 C          62.5300   85.2967   10.0341 C.1     1  UNL1       -0.0871
     12 C          60.2437   86.3391    9.3742 C.3     1  UNL1        0.0591
     13 C          60.0497   86.4601    7.8917 C.2     1  UNL1        0.0517
     14 O          59.5413   87.7431    7.3041 O.co2   1  UNL1       -0.5491
     15 O          60.3641   85.2980    6.9969 O.co2   1  UNL1       -0.5491
     16 O          63.4374   91.8037   12.0553 O.3     1  UNL1       -0.4504
     17 C          64.6921   91.8990   12.8718 C.ar    1  UNL1        0.1791
     18 C          65.9554   92.4141   12.2483 C.ar    1  UNL1        0.0406
     19 C          67.2101   92.5093   13.0648 C.ar    1  UNL1        0.0072
     20 C          67.2015   92.0895   14.5048 C.ar    1  UNL1        0.0746
     21 C          65.9382   91.5744   15.1283 C.ar    1  UNL1        0.0441
     22 C          64.6835   91.4791   14.3118 C.ar    1  UNL1        0.1785
     23 C          68.4562   92.1847   15.3213 C.3     1  UNL1        0.4187
     24 F          69.7109   92.2800   16.1378 F       1  UNL1       -0.1659
     25 F          69.2770   92.1220   14.0674 F       1  UNL1       -0.1659
     26 F          67.6355   92.2475   16.5752 F       1  UNL1       -0.1659
     27 O          63.4202   90.9640   14.9353 O.3     1  UNL1       -0.4205
     28 C          63.4617   89.7601   15.8292 C.3     1  UNL1        0.5087
     29 F          63.8777   88.4293   15.2761 F       1  UNL1       -0.1550
     30 F          63.0873   89.8870   17.2761 F       1  UNL1       -0.1550
@<TRIPOS>UNITY_ATOM_ATTR
14 1
charge -1
@<TRIPOS>BOND
     1     9    10    1
     2    10    11    3
     3    11     8    1
     4     8    12    1
     5    12    13    1
     6    13    14   ar
     7    13    15   ar
     8     8     1    1
     9     1     2   ar
    10     2     3   ar
    11     3     4   ar
    12     4    16    1
    13    16    17    1
    14    17    18   ar
    15    18    19   ar
    16    19    20   ar
    17    20    23    1
    18    23    24    1
    19    23    25    1
    20    23    26    1
    21    20    21   ar
    22    21    22   ar
    23    22    27    1
    24    27    28    1
    25    28    29    1
    26    28    30    1
    27     4     5   ar
    28     5     6   ar
    29     6     7    1
    30     6     1   ar
    31    22    17   ar
@<TRIPOS>MOLECULE
*****
 30 31 0 0 0
SMALL
GASTEIGER

@<TRIPOS>ATOM
      1 C          62.0686   87.8038   10.4567 C.ar    1  UNL1        0.0176
      2 C          61.7665   89.0390    9.6611 C.ar    1  UNL1        0.0020
      3 C          62.2350   90.3781   10.1483 C.ar    1  UNL1        0.0373
      4 C          63.0056   90.4820   11.4310 C.ar    1  UNL1        0.1477
      5 C          63.3077   89.2468   12.2265 C.ar    1  UNL1        0.0668
      6 C          62.8392   87.9077   11.7393 C.ar    1  UNL1        0.1401
      7 F          63.1414   86.6724   12.5349 F       1  UNL1       -0.2044
      8 C          61.6001   86.4647    9.9695 C.3     1  UNL1        0.0939
      9 C          64.3283   82.8954   10.2289 C.3     1  UNL1        0.0900
     10 C          63.4189   84.0851   10.1424 C.1     1  UNL1       -0.0897
     11 C          62.5095   85.2750   10.0560 C.1     1  UNL1       -0.0871
     12 C          60.2222   86.3153    9.3959 C.3     1  UNL1        0.0591
     13 C          60.0087   86.4365    7.9161 C.2     1  UNL1        0.0517
     14 O          60.3515   85.2894    7.0124 O.co2   1  UNL1       -0.5491
     15 O          59.4523   87.7048    7.3400 O.co2   1  UNL1       -0.5491
     16 O          63.4741   91.8211   11.9181 O.3     1  UNL1       -0.4504
     17 C          64.6763   91.9161   12.8101 C.ar    1  UNL1        0.1791
     18 C          64.5659   91.5465   14.2597 C.ar    1  UNL1        0.0406
     19 C          65.7681   91.6416   15.1516 C.ar    1  UNL1        0.0072
     20 C          67.0808   92.1062   14.5940 C.ar    1  UNL1        0.0746
     21 C          67.1913   92.4757   13.1445 C.ar    1  UNL1        0.0441
     22 C          65.9890   92.3807   12.2525 C.ar    1  UNL1        0.1785
     23 C          68.2831   92.2012   15.4860 C.3     1  UNL1        0.4187
     24 F          69.4852   92.2962   16.3780 F       1  UNL1       -0.1659
     25 F          69.1796   92.1253   14.2858 F       1  UNL1       -0.1659
     26 F          67.3866   92.2771   16.6862 F       1  UNL1       -0.1659
     27 O          66.0995   92.7503   10.8029 O.3     1  UNL1       -0.4205
     28 C          67.4415   92.7658   10.1331 C.3     1  UNL1        0.5087
     29 F          68.1895   91.4828    9.9225 F       1  UNL1       -0.1550
     30 F          68.0356   94.0643    9.6737 F       1  UNL1       -0.1550
@<TRIPOS>UNITY_ATOM_ATTR
14 1
charge -1
@<TRIPOS>BOND
     1     9    10    1
     2    10    11    3
     3    11     8    1
     4     8    12    1
     5    12    13    1
     6    13    14   ar
     7    13    15   ar
     8     8     1    1
     9     1     2   ar
    10     2     3   ar
    11     3     4   ar
    12     4    16    1
    13    16    17    1
    14    17    18   ar
    15    18    19   ar
    16    19    20   ar
    17    20    23    1
    18    23    24    1
    19    23    25    1
    20    23    26    1
    21    20    21   ar
    22    21    22   ar
    23    22    27    1
    24    27    28    1
    25    28    29    1
    26    28    30    1
    27     4     5   ar
    28     5     6   ar
    29     6     7    1
    30     6     1   ar
    31    22    17   ar
@<TRIPOS>MOLECULE
*****
 30 31 0 0 0
SMALL
GASTEIGER

@<TRIPOS>ATOM
      1 C          62.5790   86.6153   10.6949 C.ar    1  UNL1        0.0176
      2 C          63.2231   86.8710   12.0252 C.ar    1  UNL1        0.0020
      3 C          63.2812   88.2654   12.5748 C.ar    1  UNL1        0.0373
      4 C          62.6951   89.4043   11.7941 C.ar    1  UNL1        0.1477
      5 C          62.0510   89.1487   10.4638 C.ar    1  UNL1        0.0668
      6 C          61.9930   87.7542    9.9142 C.ar    1  UNL1        0.1401
      7 F          61.3488   87.4986    8.5838 F       1  UNL1       -0.2044
      8 C          62.5209   85.2209   10.1452 C.3     1  UNL1        0.0939
      9 C          62.2924   84.5623    5.6996 C.3     1  UNL1        0.0900
     10 C          62.3686   84.7818    7.1814 C.1     1  UNL1       -0.0897
     11 C          62.4448   85.0014    8.6634 C.1     1  UNL1       -0.0871
     12 C          62.5391   84.0459   11.0775 C.3     1  UNL1        0.0591
     13 C          63.8388   83.3796   11.4191 C.2     1  UNL1        0.0517
     14 O          64.2886   83.3013   12.8479 O.co2   1  UNL1       -0.5491
     15 O          64.6886   82.7914   10.3319 O.co2   1  UNL1       -0.5491
     16 O          62.7532   90.7988   12.3437 O.3     1  UNL1       -0.4504
     17 C          63.9966   91.2841   13.0280 C.ar    1  UNL1        0.1791
     18 C          65.0532   92.0028   12.2423 C.ar    1  UNL1        0.0406
     19 C          66.2967   92.4881   12.9265 C.ar    1  UNL1        0.0072
     20 C          66.4837   92.2547   14.3964 C.ar    1  UNL1        0.0746
     21 C          65.4272   91.5360   15.1821 C.ar    1  UNL1        0.0441
     22 C          64.1836   91.0507   14.4978 C.ar    1  UNL1        0.1785
     23 C          67.7272   92.7401   15.0806 C.3     1  UNL1        0.4187
     24 F          68.9707   93.2254   15.7648 F       1  UNL1       -0.1659
     25 F          66.9021   93.2282   16.2342 F       1  UNL1       -0.1659
     26 F          68.5524   92.2519   13.9270 F       1  UNL1       -0.1659
     27 O          63.1272   90.3320   15.2835 O.3     1  UNL1       -0.4205
     28 C          63.4846   89.1129   16.0810 C.3     1  UNL1        0.5087
     29 F          63.1744   89.0584   17.5475 F       1  UNL1       -0.1550
     30 F          64.1524   87.9483   15.4120 F       1  UNL1       -0.1550
@<TRIPOS>UNITY_ATOM_ATTR
14 1
charge -1
@<TRIPOS>BOND
     1     9    10    1
     2    10    11    3
     3    11     8    1
     4     8    12    1
     5    12    13    1
     6    13    14   ar
     7    13    15   ar
     8     8     1    1
     9     1     2   ar
    10     2     3   ar
    11     3     4   ar
    12     4    16    1
    13    16    17    1
    14    17    18   ar
    15    18    19   ar
    16    19    20   ar
    17    20    23    1
    18    23    24    1
    19    23    25    1
    20    23    26    1
    21    20    21   ar
    22    21    22   ar
    23    22    27    1
    24    27    28    1
    25    28    29    1
    26    28    30    1
    27     4     5   ar
    28     5     6   ar
    29     6     7    1
    30     6     1   ar
    31    22    17   ar
@<TRIPOS>MOLECULE
*****
 30 31 0 0 0
SMALL
GASTEIGER

@<TRIPOS>ATOM
      1 C          62.5902   87.0307   10.8223 C.ar    1  UNL1        0.0176
      2 C          62.2161   88.1635    9.9131 C.ar    1  UNL1        0.0020
      3 C          62.4321   89.5811   10.3531 C.ar    1  UNL1        0.0373
      4 C          63.0223   89.8660   11.7024 C.ar    1  UNL1        0.1477
      5 C          63.3964   88.7332   12.6116 C.ar    1  UNL1        0.0668
      6 C          63.1803   87.3155   12.1716 C.ar    1  UNL1        0.1401
      7 F          63.5544   86.1827   13.0809 F       1  UNL1       -0.2044
      8 C          62.3741   85.6131   10.3823 C.3     1  UNL1        0.0939
      9 C          62.4121   84.5865    6.0011 C.3     1  UNL1        0.0900
     10 C          62.3994   84.9287    7.4615 C.1     1  UNL1       -0.0897
     11 C          62.3868   85.2709    8.9219 C.1     1  UNL1       -0.0871
     12 C          62.1454   84.5376   11.4026 C.3     1  UNL1        0.0591
     13 C          63.0312   83.3274   11.4280 C.2     1  UNL1        0.0517
     14 O          62.4794   82.0032   11.8664 O.co2   1  UNL1       -0.5491
     15 O          64.4688   83.4413   11.0152 O.co2   1  UNL1       -0.5491
     16 O          63.2383   91.2836   12.1424 O.3     1  UNL1       -0.4504
     17 C          64.4357   91.6366   12.9740 C.ar    1  UNL1        0.1791
     18 C          64.4372   91.3499   14.4464 C.ar    1  UNL1        0.0406
     19 C          65.6346   91.7029   15.2780 C.ar    1  UNL1        0.0072
     20 C          66.8306   92.3425   14.6372 C.ar    1  UNL1        0.0746
     21 C          66.8291   92.6292   13.1649 C.ar    1  UNL1        0.0441
     22 C          65.6317   92.2763   12.3332 C.ar    1  UNL1        0.1785
     23 C          68.0280   92.6955   15.4689 C.3     1  UNL1        0.4187
     24 F          69.2254   93.0485   16.3005 F       1  UNL1       -0.1659
     25 F          68.9312   92.2648   14.3514 F       1  UNL1       -0.1659
     26 F          67.1249   93.1262   16.5864 F       1  UNL1       -0.1659
     27 O          65.6302   92.5629   10.8609 O.3     1  UNL1       -0.4205
     28 C          66.9210   92.8428   10.1500 C.3     1  UNL1        0.5087
     29 F          67.7794   91.7065    9.6789 F       1  UNL1       -0.1550
     30 F          67.3535   94.2589    9.9102 F       1  UNL1       -0.1550
@<TRIPOS>UNITY_ATOM_ATTR
14 1
charge -1
@<TRIPOS>BOND
     1     9    10    1
     2    10    11    3
     3    11     8    1
     4     8    12    1
     5    12    13    1
     6    13    14   ar
     7    13    15   ar
     8     8     1    1
     9     1     2   ar
    10     2     3   ar
    11     3     4   ar
    12     4    16    1
    13    16    17    1
    14    17    18   ar
    15    18    19   ar
    16    19    20   ar
    17    20    23    1
    18    23    24    1
    19    23    25    1
    20    23    26    1
    21    20    21   ar
    22    21    22   ar
    23    22    27    1
    24    27    28    1
    25    28    29    1
    26    28    30    1
    27     4     5   ar
    28     5     6   ar
    29     6     7    1
    30     6     1   ar
    31    22    17   ar
@<TRIPOS>MOLECULE
*****
 30 31 0 0 0
SMALL
GASTEIGER

@<TRIPOS>ATOM
      1 C          63.6455   86.2616   13.6207 C.ar    1  UNL1        0.0176
      2 C          64.2678   86.8942   14.8301 C.ar    1  UNL1        0.0020
      3 C          64.3953   88.3864   14.9142 C.ar    1  UNL1        0.0373
      4 C          63.9006   89.2460   13.7889 C.ar    1  UNL1        0.1477
      5 C          63.2784   88.6135   12.5796 C.ar    1  UNL1        0.0668
      6 C          63.1508   87.1213   12.4955 C.ar    1  UNL1        0.1401
      7 F          62.5285   86.4887   11.2860 F       1  UNL1       -0.2044
      8 C          63.5180   84.7695   13.5366 C.3     1  UNL1        0.0939
      9 C          64.3809   82.6524    9.6606 C.3     1  UNL1        0.0900
     10 C          64.0933   83.3581   10.9526 C.1     1  UNL1       -0.0897
     11 C          63.8056   84.0638   12.2446 C.1     1  UNL1       -0.0871
     12 C          63.1028   83.9829   14.7445 C.3     1  UNL1        0.0591
     13 C          62.7926   82.5209   14.6172 C.2     1  UNL1        0.0517
     14 O          61.3681   82.0627   14.5135 O.co2   1  UNL1       -0.5491
     15 O          63.9070   81.5170   14.5936 O.co2   1  UNL1       -0.5491
     16 O          64.0282   90.7382   13.8731 O.3     1  UNL1       -0.4504
     17 C          64.8957   91.4732   12.8946 C.ar    1  UNL1        0.1791
     18 C          64.3461   91.8719   11.5571 C.ar    1  UNL1        0.0406
     19 C          65.2135   92.6069   10.5786 C.ar    1  UNL1        0.0072
     20 C          66.6306   92.9430   10.9377 C.ar    1  UNL1        0.0746
     21 C          67.1802   92.5443   12.2752 C.ar    1  UNL1        0.0441
     22 C          66.3127   91.8094   13.2537 C.ar    1  UNL1        0.1785
     23 C          67.4981   93.6780    9.9592 C.3     1  UNL1        0.4187
     24 F          68.3655   94.4129    8.9807 F       1  UNL1       -0.1659
     25 F          67.0678   94.9840   10.5586 F       1  UNL1       -0.1659
     26 F          67.9283   92.3721    9.3598 F       1  UNL1       -0.1659
     27 O          66.8623   91.4106   14.5912 O.3     1  UNL1       -0.4205
     28 C          67.4454   92.4496   15.5024 C.3     1  UNL1        0.5087
     29 F          68.2777   92.0335   16.6789 F       1  UNL1       -0.1550
     30 F          67.1962   93.9048   15.2373 F       1  UNL1       -0.1550
@<TRIPOS>UNITY_ATOM_ATTR
14 1
charge -1
@<TRIPOS>BOND
     1     9    10    1
     2    10    11    3
     3    11     8    1
     4     8    12    1
     5    12    13    1
     6    13    14   ar
     7    13    15   ar
     8     8     1    1
     9     1     2   ar
    10     2     3   ar
    11     3     4   ar
    12     4    16    1
    13    16    17    1
    14    17    18   ar
    15    18    19   ar
    16    19    20   ar
    17    20    23    1
    18    23    24    1
    19    23    25    1
    20    23    26    1
    21    20    21   ar
    22    21    22   ar
    23    22    27    1
    24    27    28    1
    25    28    29    1
    26    28    30    1
    27     4     5   ar
    28     5     6   ar
    29     6     7    1
    30     6     1   ar
    31    22    17   ar
@<TRIPOS>MOLECULE
*****
 30 31 0 0 0
SMALL
GASTEIGER

@<TRIPOS>ATOM
      1 C          62.4359   87.6860   11.1918 C.ar    1  UNL1        0.0176
      2 C          62.2682   89.0591   10.6119 C.ar    1  UNL1        0.0020
      3 C          62.8822   90.2432   11.2981 C.ar    1  UNL1        0.0373
      4 C          63.6639   90.0541   12.5643 C.ar    1  UNL1        0.1477
      5 C          63.8316   88.6810   13.1441 C.ar    1  UNL1        0.0668
      6 C          63.2176   87.4969   12.4579 C.ar    1  UNL1        0.1401
      7 F          63.3853   86.1237   13.0378 F       1  UNL1       -0.2044
      8 C          61.8218   86.5019   10.5055 C.3     1  UNL1        0.0939
      9 C          64.1053   82.6352   10.2159 C.3     1  UNL1        0.0900
     10 C          63.3442   83.9241   10.3124 C.1     1  UNL1       -0.0897
     11 C          62.5829   85.2130   10.4090 C.1     1  UNL1       -0.0871
     12 C          60.4466   86.6068    9.9158 C.3     1  UNL1        0.0591
     13 C          60.2777   86.8543    8.4460 C.2     1  UNL1        0.0517
     14 O          60.4191   85.7211    7.4735 O.co2   1  UNL1       -0.5491
     15 O          59.9675   88.2351    7.9488 O.co2   1  UNL1       -0.5491
     16 O          64.2780   91.2382   13.2505 O.3     1  UNL1       -0.4504
     17 C          64.9877   92.2865   12.4460 C.ar    1  UNL1        0.1791
     18 C          64.8573   92.3012   10.9517 C.ar    1  UNL1        0.0406
     19 C          65.5670   93.3495   10.1472 C.ar    1  UNL1        0.0072
     20 C          66.4072   94.3832   10.8369 C.ar    1  UNL1        0.0746
     21 C          66.5377   94.3685   12.3312 C.ar    1  UNL1        0.0441
     22 C          65.8279   93.3201   13.1357 C.ar    1  UNL1        0.1785
     23 C          67.1170   95.4315   10.0324 C.3     1  UNL1        0.4187
     24 F          67.8267   96.4798    9.2278 F       1  UNL1       -0.1659
     25 F          66.1458   96.4646   10.5217 F       1  UNL1       -0.1659
     26 F          68.0881   94.3984    9.5430 F       1  UNL1       -0.1659
     27 O          65.9584   93.3054   14.6299 O.3     1  UNL1       -0.4205
     28 C          66.9296   92.3713   15.2889 C.3     1  UNL1        0.5087
     29 F          67.5392   91.2475   14.5045 F       1  UNL1       -0.1550
     30 F          67.2913   92.5611   16.7322 F       1  UNL1       -0.1550
@<TRIPOS>UNITY_ATOM_ATTR
14 1
charge -1
@<TRIPOS>BOND
     1     9    10    1
     2    10    11    3
     3    11     8    1
     4     8    12    1
     5    12    13    1
     6    13    14   ar
     7    13    15   ar
     8     8     1    1
     9     1     2   ar
    10     2     3   ar
    11     3     4   ar
    12     4    16    1
    13    16    17    1
    14    17    18   ar
    15    18    19   ar
    16    19    20   ar
    17    20    23    1
    18    23    24    1
    19    23    25    1
    20    23    26    1
    21    20    21   ar
    22    21    22   ar
    23    22    27    1
    24    27    28    1
    25    28    29    1
    26    28    30    1
    27     4     5   ar
    28     5     6   ar
    29     6     7    1
    30     6     1   ar
    31    22    17   ar
@<TRIPOS>MOLECULE
*****
 30 31 0 0 0
SMALL
GASTEIGER

@<TRIPOS>ATOM
      1 C          62.9391   88.9069   11.8596 C.ar    1  UNL1        0.0176
      2 C          63.7089   89.0655   13.1371 C.ar    1  UNL1        0.0020
      3 C          64.1461   87.8532   13.9048 C.ar    1  UNL1        0.0373
      4 C          63.8136   86.4824   13.3948 C.ar    1  UNL1        0.1477
      5 C          63.0438   86.3238   12.1173 C.ar    1  UNL1        0.0668
      6 C          62.6065   87.5360   11.3497 C.ar    1  UNL1        0.1401
      7 F          61.8367   87.3774   10.0720 F       1  UNL1       -0.2044
      8 C          62.5018   90.1192   11.0920 C.3     1  UNL1        0.0939
      9 C          65.3638   93.5332   10.4567 C.3     1  UNL1        0.0900
     10 C          64.4098   92.3952   10.6684 C.1     1  UNL1       -0.0897
     11 C          63.4558   91.2572   10.8802 C.1     1  UNL1       -0.0871
     12 C          61.1107   90.1934   10.5361 C.3     1  UNL1        0.0591
     13 C          59.9313   90.1866   11.4629 C.2     1  UNL1        0.0517
     14 O          58.9739   91.3412   11.4670 O.co2   1  UNL1       -0.5491
     15 O          59.7094   89.0250   12.3857 O.co2   1  UNL1       -0.5491
     16 O          64.2508   85.2701   14.1625 O.3     1  UNL1       -0.4504
     17 C          63.4483   84.0051   14.0874 C.ar    1  UNL1        0.1791
     18 C          62.4655   83.6750   15.1715 C.ar    1  UNL1        0.0406
     19 C          61.6629   82.4100   15.0965 C.ar    1  UNL1        0.0072
     20 C          61.8431   81.4751   13.9374 C.ar    1  UNL1        0.0746
     21 C          62.8259   81.8052   12.8533 C.ar    1  UNL1        0.0441
     22 C          63.6285   83.0702   12.9283 C.ar    1  UNL1        0.1785
     23 C          61.0405   80.2100   13.8624 C.3     1  UNL1        0.4187
     24 F          60.2380   78.9450   13.7873 F       1  UNL1       -0.1659
     25 F          59.8167   80.9606   14.2969 F       1  UNL1       -0.1659
     26 F          62.2643   79.4594   13.4278 F       1  UNL1       -0.1659
     27 O          64.6112   83.4003   11.8443 O.3     1  UNL1       -0.4205
     28 C          64.2570   83.1484   10.4086 C.3     1  UNL1        0.5087
     29 F          64.3185   81.7560    9.8542 F       1  UNL1       -0.1550
     30 F          63.8411   84.2888    9.5275 F       1  UNL1       -0.1550
@<TRIPOS>UNITY_ATOM_ATTR
14 1
charge -1
@<TRIPOS>BOND
     1     9    10    1
     2    10    11    3
     3    11     8    1
     4     8    12    1
     5    12    13    1
     6    13    14   ar
     7    13    15   ar
     8     8     1    1
     9     1     2   ar
    10     2     3   ar
    11     3     4   ar
    12     4    16    1
    13    16    17    1
    14    17    18   ar
    15    18    19   ar
    16    19    20   ar
    17    20    23    1
    18    23    24    1
    19    23    25    1
    20    23    26    1
    21    20    21   ar
    22    21    22   ar
    23    22    27    1
    24    27    28    1
    25    28    29    1
    26    28    30    1
    27     4     5   ar
    28     5     6   ar
    29     6     7    1
    30     6     1   ar
    31    22    17   ar
