@<TRIPOS>MOLECULE
*****
 34 37 0 0 0
SMALL
GASTEIGER

@<TRIPOS>ATOM
      1 C          63.5135   89.7557   12.5785 C.ar    1  UNL1        0.0949
      2 C          62.8253   89.4867   11.2731 C.ar    1  UNL1        0.1454
      3 F          62.4748   90.6252   10.3615 F       1  UNL1       -0.2040
      4 C          62.4877   88.0793   10.8794 C.ar    1  UNL1        0.0312
      5 C          62.8383   86.9408   11.7910 C.ar    1  UNL1        0.0204
      6 C          63.5264   87.2098   13.0964 C.ar    1  UNL1        0.0924
      7 C          63.8640   88.6173   13.4901 C.ar    1  UNL1        0.1598
      8 F          64.5522   88.8863   14.7956 F       1  UNL1       -0.2026
      9 C          63.8511   91.1633   12.9724 C.2     1  UNL1        0.2006
     10 O          62.7789   92.0742   13.4923 O.2     1  UNL1       -0.2866
     11 C          65.9631   92.0530   15.4660 C.2     1  UNL1        0.0659
     12 C          67.0732   92.4986   16.3710 C.2     1  UNL1        0.0573
     13 C          68.3852   92.9354   15.7897 C.2     1  UNL1        0.2361
     14 N          68.5871   92.9265   14.3034 N.2     1  UNL1       -0.0340
     15 C          67.4771   92.4809   13.3984 C.2     1  UNL1        0.3601
     16 N          67.3838   92.3663   11.9057 N.2     1  UNL1       -0.0342
     17 C          66.0142   91.8588   11.5644 C.2     1  UNL1        0.2354
     18 C          65.2609   91.6597   12.8462 C.2     1  UNL1        0.0799
     19 C          66.1650   92.0442   13.9797 C.3     1  UNL1        0.1729
     20 N          63.3390   91.1796   16.6285 N.1     1  UNL1       -0.1911
     21 C          64.6510   91.6163   16.0472 C.1     1  UNL1        0.0971
     22 N          63.8770   86.0714   14.0080 N.pl3   1  UNL1       -0.2127
     23 H          64.3229   86.2484   14.8677 H       1  UNL1        0.1738
     24 S          63.5481   84.6631   13.6098 S.O2    1  UNL1        0.0780
     25 O          62.0846   84.9791   13.7009 O.2     1  UNL1       -0.1498
     26 O          65.0115   84.3470   13.5187 O.2     1  UNL1       -0.1498
     27 C          63.2192   83.2548   13.2116 C.ar    1  UNL1        0.1797
     28 C          62.7065   82.2861   14.2357 C.ar    1  UNL1        0.1611
     29 F          62.5227   82.7258   15.6580 F       1  UNL1       -0.2027
     30 C          62.3777   80.8778   13.8376 C.ar    1  UNL1        0.0312
     31 C          62.5616   80.4381   12.4153 C.ar    1  UNL1        0.0047
     32 C          63.0743   81.4069   11.3912 C.ar    1  UNL1        0.0312
     33 C          63.4031   82.8152   11.7893 C.ar    1  UNL1        0.1611
     34 F          63.9158   83.7838   10.7652 F       1  UNL1       -0.2027
@<TRIPOS>BOND
     1    20    21    3
     2    21    11    1
     3    11    12    2
     4    12    13    1
     5    13    14    2
     6    14    15    1
     7    15    16    2
     8    16    17    1
     9    17    18    2
    10    18     9    1
    11     9    10    2
    12     9     1    1
    13     1     2   ar
    14     2     3    1
    15     2     4   ar
    16     4     5   ar
    17     5     6   ar
    18     6    22    1
    19    22    24    1
    20    24    25    2
    21    24    26    2
    22    24    27    1
    23    27    28   ar
    24    28    29    1
    25    28    30   ar
    26    30    31   ar
    27    31    32   ar
    28    32    33   ar
    29    33    34    1
    30     6     7   ar
    31     7     8    1
    32    18    19    1
    33    19    11    1
    34    19    15    1
    35     7     1   ar
    36    33    27   ar
    37    22    23    1
@<TRIPOS>MOLECULE
*****
 34 37 0 0 0
SMALL
GASTEIGER

@<TRIPOS>ATOM
      1 C          61.9137   88.7782   10.9932 C.ar    1  UNL1        0.0949
      2 C          60.8111   89.0460   10.0121 C.ar    1  UNL1        0.1454
      3 F          60.0661   90.3471   10.0579 F       1  UNL1       -0.2040
      4 C          60.4536   88.0128    8.9852 C.ar    1  UNL1        0.0312
      5 C          61.1987   86.7117    8.9394 C.ar    1  UNL1        0.0204
      6 C          62.3013   86.4439    9.9205 C.ar    1  UNL1        0.0924
      7 C          62.6588   87.4772   10.9474 C.ar    1  UNL1        0.1598
      8 F          63.7614   87.2094   11.9285 F       1  UNL1       -0.2026
      9 C          62.2713   89.8116   12.0201 C.2     1  UNL1        0.2006
     10 O          61.5814   89.8153   13.3519 O.2     1  UNL1       -0.2866
     11 C          64.9427   90.6710   13.9161 C.2     1  UNL1        0.0659
     12 C          66.1802   91.2260   14.5569 C.2     1  UNL1        0.0573
     13 C          66.9644   92.3021   13.8662 C.2     1  UNL1        0.2361
     14 N          66.5111   92.8232   12.5347 N.2     1  UNL1       -0.0340
     15 C          65.2737   92.2682   11.8939 C.2     1  UNL1        0.3601
     16 N          64.5876   92.5821   10.5975 N.2     1  UNL1       -0.0342
     17 C          63.3794   91.7001   10.4869 C.2     1  UNL1        0.2354
     18 C          63.3187   90.8410   11.7151 C.2     1  UNL1        0.0799
     19 C          64.4895   91.1921   12.5846 C.3     1  UNL1        0.1729
     20 N          63.3743   88.5188   15.2976 N.1     1  UNL1       -0.1911
     21 C          64.1585   89.5949   14.6069 C.1     1  UNL1        0.0971
     22 N          63.0463   85.1428    9.8748 N.pl3   1  UNL1       -0.2127
     23 H          63.6195   84.9306    9.1029 H       1  UNL1        0.1738
     24 S          62.9181   84.1650   11.0050 S.O2    1  UNL1        0.0780
     25 O          64.2792   83.6201   10.6880 O.2     1  UNL1       -0.1498
     26 O          61.5570   84.7098   11.3220 O.2     1  UNL1       -0.1498
     27 C          62.7898   83.1872   12.1352 C.ar    1  UNL1        0.1797
     28 C          62.7277   83.6806   13.5504 C.ar    1  UNL1        0.1611
     29 F          62.7939   85.1518   13.8352 F       1  UNL1       -0.2027
     30 C          62.5995   82.7029   14.6807 C.ar    1  UNL1        0.0312
     31 C          62.5333   81.2317   14.3959 C.ar    1  UNL1        0.0047
     32 C          62.5954   80.7383   12.9807 C.ar    1  UNL1        0.0312
     33 C          62.7236   81.7160   11.8504 C.ar    1  UNL1        0.1611
     34 F          62.7857   81.2225   10.4352 F       1  UNL1       -0.2027
@<TRIPOS>BOND
     1    20    21    3
     2    21    11    1
     3    11    12    2
     4    12    13    1
     5    13    14    2
     6    14    15    1
     7    15    16    2
     8    16    17    1
     9    17    18    2
    10    18     9    1
    11     9    10    2
    12     9     1    1
    13     1     2   ar
    14     2     3    1
    15     2     4   ar
    16     4     5   ar
    17     5     6   ar
    18     6    22    1
    19    22    24    1
    20    24    25    2
    21    24    26    2
    22    24    27    1
    23    27    28   ar
    24    28    29    1
    25    28    30   ar
    26    30    31   ar
    27    31    32   ar
    28    32    33   ar
    29    33    34    1
    30     6     7   ar
    31     7     8    1
    32    18    19    1
    33    19    11    1
    34    19    15    1
    35     7     1   ar
    36    33    27   ar
    37    22    23    1
@<TRIPOS>MOLECULE
*****
 34 37 0 0 0
SMALL
GASTEIGER

@<TRIPOS>ATOM
      1 C          61.9570   88.7803   11.0004 C.ar    1  UNL1        0.0949
      2 C          60.8736   89.0567   10.0004 C.ar    1  UNL1        0.1454
      3 F          60.1417   90.3656   10.0302 F       1  UNL1       -0.2040
      4 C          60.5223   88.0241    8.9707 C.ar    1  UNL1        0.0312
      5 C          61.2543   86.7152    8.9409 C.ar    1  UNL1        0.0204
      6 C          62.3377   86.4388    9.9409 C.ar    1  UNL1        0.0924
      7 C          62.6890   87.4714   10.9706 C.ar    1  UNL1        0.1598
      8 F          63.7723   87.1951   11.9706 F       1  UNL1       -0.2026
      9 C          62.3084   89.8129   12.0302 C.2     1  UNL1        0.2006
     10 O          61.6230   89.8049   13.3644 O.2     1  UNL1       -0.2866
     11 C          64.9765   90.6920   13.9218 C.2     1  UNL1        0.0659
     12 C          66.2103   91.2567   14.5611 C.2     1  UNL1        0.0573
     13 C          66.9823   92.3425   13.8718 C.2     1  UNL1        0.2361
     14 N          66.5204   92.8635   12.5432 N.2     1  UNL1       -0.0340
     15 C          65.2866   92.2987   11.9039 C.2     1  UNL1        0.3601
     16 N          64.5941   92.6102   10.6103 N.2     1  UNL1       -0.0342
     17 C          63.3941   91.7169   10.5001 C.2     1  UNL1        0.2354
     18 C          63.3451   90.8534   11.7257 C.2     1  UNL1        0.0799
     19 C          64.5147   91.2129   12.5932 C.3     1  UNL1        0.1729
     20 N          63.4326   88.5204   15.3005 N.1     1  UNL1       -0.1911
     21 C          64.2046   89.6062   14.6112 C.1     1  UNL1        0.0971
     22 N          63.0697   85.1299    9.9111 N.pl3   1  UNL1       -0.2127
     23 H          63.6540   84.9099    9.1499 H       1  UNL1        0.1738
     24 S          62.9114   84.1562   11.0411 S.O2    1  UNL1        0.0780
     25 O          64.2739   83.5993   10.7521 O.2     1  UNL1       -0.1498
     26 O          61.5490   84.7131   11.3301 O.2     1  UNL1       -0.1498
     27 C          62.7531   83.1826   12.1711 C.ar    1  UNL1        0.1797
     28 C          62.6726   81.7117   11.8881 C.ar    1  UNL1        0.1611
     29 F          62.7505   81.2146   10.4751 F       1  UNL1       -0.2027
     30 C          62.5143   80.7380   13.0181 C.ar    1  UNL1        0.0312
     31 C          62.4364   81.2352   14.4311 C.ar    1  UNL1        0.0047
     32 C          62.5168   82.7061   14.7141 C.ar    1  UNL1        0.0312
     33 C          62.6752   83.6798   13.5842 C.ar    1  UNL1        0.1611
     34 F          62.7556   85.1506   13.8673 F       1  UNL1       -0.2027
@<TRIPOS>BOND
     1    20    21    3
     2    21    11    1
     3    11    12    2
     4    12    13    1
     5    13    14    2
     6    14    15    1
     7    15    16    2
     8    16    17    1
     9    17    18    2
    10    18     9    1
    11     9    10    2
    12     9     1    1
    13     1     2   ar
    14     2     3    1
    15     2     4   ar
    16     4     5   ar
    17     5     6   ar
    18     6    22    1
    19    22    24    1
    20    24    25    2
    21    24    26    2
    22    24    27    1
    23    27    28   ar
    24    28    29    1
    25    28    30   ar
    26    30    31   ar
    27    31    32   ar
    28    32    33   ar
    29    33    34    1
    30     6     7   ar
    31     7     8    1
    32    18    19    1
    33    19    11    1
    34    19    15    1
    35     7     1   ar
    36    33    27   ar
    37    22    23    1
@<TRIPOS>MOLECULE
*****
 34 37 0 0 0
SMALL
GASTEIGER

@<TRIPOS>ATOM
      1 C          63.6369   89.1072   15.3288 C.ar    1  UNL1        0.0949
      2 C          63.1310   88.7454   16.6938 C.ar    1  UNL1        0.1454
      3 F          62.5647   89.8070   17.5895 F       1  UNL1       -0.2040
      4 C          63.1916   87.3220   17.1630 C.ar    1  UNL1        0.0312
      5 C          63.7579   86.2604   16.2673 C.ar    1  UNL1        0.0204
      6 C          64.2638   86.6223   14.9023 C.ar    1  UNL1        0.0924
      7 C          64.2033   88.0457   14.4331 C.ar    1  UNL1        0.1598
      8 F          64.7091   88.4076   13.0681 F       1  UNL1       -0.2026
      9 C          63.5764   90.5307   14.8595 C.2     1  UNL1        0.2006
     10 O          63.5666   91.6498   15.8582 O.2     1  UNL1       -0.2866
     11 C          65.8040   92.3166   13.0377 C.2     1  UNL1        0.0659
     12 C          66.6265   93.0541   12.0232 C.2     1  UNL1        0.0573
     13 C          66.1811   93.1073   10.5918 C.2     1  UNL1        0.2361
     14 N          64.9131   92.4229   10.1751 N.2     1  UNL1       -0.0340
     15 C          64.0906   91.6853   11.1896 C.2     1  UNL1        0.3601
     16 N          62.8050   90.9210   11.0756 N.2     1  UNL1       -0.0342
     17 C          62.4558   90.3954   12.4364 C.2     1  UNL1        0.2354
     18 C          63.5257   90.8350   13.3915 C.2     1  UNL1        0.0799
     19 C          64.5360   91.6322   12.6210 C.3     1  UNL1        0.1729
     20 N          66.6949   92.2103   15.9004 N.1     1  UNL1       -0.1911
     21 C          66.2494   92.2634   14.4691 C.1     1  UNL1        0.0971
     22 N          64.8301   85.5607   14.0066 N.pl3   1  UNL1       -0.2127
     23 H          65.6889   85.7096   13.5488 H       1  UNL1        0.1738
     24 S          64.0880   84.2723   13.8083 S.O2    1  UNL1        0.0780
     25 O          63.1861   84.9445   12.8161 O.2     1  UNL1       -0.1498
     26 O          64.9900   83.6001   14.8006 O.2     1  UNL1       -0.1498
     27 C          63.3460   82.9839   13.6102 C.ar    1  UNL1        0.1797
     28 C          63.7127   82.0741   12.4753 C.ar    1  UNL1        0.1611
     29 F          64.8214   82.4528   11.5387 F       1  UNL1       -0.2027
     30 C          62.9707   80.7857   12.2771 C.ar    1  UNL1        0.0312
     31 C          61.8619   80.4069   13.2137 C.ar    1  UNL1        0.0047
     32 C          61.4952   81.3168   14.3485 C.ar    1  UNL1        0.0312
     33 C          62.2372   82.6052   14.5468 C.ar    1  UNL1        0.1611
     34 F          61.8705   83.5149   15.6816 F       1  UNL1       -0.2027
@<TRIPOS>BOND
     1    20    21    3
     2    21    11    1
     3    11    12    2
     4    12    13    1
     5    13    14    2
     6    14    15    1
     7    15    16    2
     8    16    17    1
     9    17    18    2
    10    18     9    1
    11     9    10    2
    12     9     1    1
    13     1     2   ar
    14     2     3    1
    15     2     4   ar
    16     4     5   ar
    17     5     6   ar
    18     6    22    1
    19    22    24    1
    20    24    25    2
    21    24    26    2
    22    24    27    1
    23    27    28   ar
    24    28    29    1
    25    28    30   ar
    26    30    31   ar
    27    31    32   ar
    28    32    33   ar
    29    33    34    1
    30     6     7   ar
    31     7     8    1
    32    18    19    1
    33    19    11    1
    34    19    15    1
    35     7     1   ar
    36    33    27   ar
    37    22    23    1
@<TRIPOS>MOLECULE
*****
 34 37 0 0 0
SMALL
GASTEIGER

@<TRIPOS>ATOM
      1 C          63.8426   88.9706   15.1260 C.ar    1  UNL1        0.0949
      2 C          63.5840   88.4016   16.4896 C.ar    1  UNL1        0.1454
      3 F          63.4291   89.3175   17.6673 F       1  UNL1       -0.2040
      4 C          63.4805   86.9168   16.6754 C.ar    1  UNL1        0.0312
      5 C          63.6354   86.0009   15.4976 C.ar    1  UNL1        0.0204
      6 C          63.8940   86.5699   14.1340 C.ar    1  UNL1        0.0924
      7 C          63.9976   88.0547   13.9482 C.ar    1  UNL1        0.1598
      8 F          64.2562   88.6237   12.5846 F       1  UNL1       -0.2026
      9 C          63.9462   90.4555   14.9401 C.2     1  UNL1        0.2006
     10 O          62.7763   91.3355   15.2664 O.2     1  UNL1       -0.2866
     11 C          64.5556   91.6828   11.8429 C.2     1  UNL1        0.0659
     12 C          65.0723   92.2793   10.5673 C.2     1  UNL1        0.0573
     13 C          66.4820   92.7865   10.4935 C.2     1  UNL1        0.2361
     14 N          67.3751   92.6971   11.6953 N.2     1  UNL1       -0.0340
     15 C          66.8585   92.1006   12.9709 C.2     1  UNL1        0.3601
     16 N          67.5008   91.8807   14.3085 N.2     1  UNL1       -0.0342
     17 C          66.4881   91.2377   15.2090 C.2     1  UNL1        0.2354
     18 C          65.2198   91.0602   14.4279 C.2     1  UNL1        0.0799
     19 C          65.4487   91.5935   13.0447 C.3     1  UNL1        0.1729
     20 N          61.7362   90.6686   11.9906 N.1     1  UNL1       -0.1911
     21 C          63.1459   91.1757   11.9167 C.1     1  UNL1        0.0971
     22 N          64.0490   85.6540   12.9562 N.pl3   1  UNL1       -0.2127
     23 H          64.4880   85.9766   12.1362 H       1  UNL1        0.1738
     24 S          63.5351   84.2466   13.0279 S.O2    1  UNL1        0.0780
     25 O          62.2240   84.6961   12.4544 O.2     1  UNL1       -0.1498
     26 O          64.8462   83.7971   13.6014 O.2     1  UNL1       -0.1498
     27 C          63.0213   82.8392   13.0996 C.ar    1  UNL1        0.1797
     28 C          62.1537   82.4151   14.2474 C.ar    1  UNL1        0.1611
     29 F          61.7999   83.3984   15.3234 F       1  UNL1       -0.2027
     30 C          61.6398   81.0077   14.3192 C.ar    1  UNL1        0.0312
     31 C          61.9935   80.0243   13.2431 C.ar    1  UNL1        0.0047
     32 C          62.8611   80.4485   12.0953 C.ar    1  UNL1        0.0312
     33 C          63.3750   81.8559   12.0236 C.ar    1  UNL1        0.1611
     34 F          64.2426   82.2799   10.8757 F       1  UNL1       -0.2027
@<TRIPOS>BOND
     1    20    21    3
     2    21    11    1
     3    11    12    2
     4    12    13    1
     5    13    14    2
     6    14    15    1
     7    15    16    2
     8    16    17    1
     9    17    18    2
    10    18     9    1
    11     9    10    2
    12     9     1    1
    13     1     2   ar
    14     2     3    1
    15     2     4   ar
    16     4     5   ar
    17     5     6   ar
    18     6    22    1
    19    22    24    1
    20    24    25    2
    21    24    26    2
    22    24    27    1
    23    27    28   ar
    24    28    29    1
    25    28    30   ar
    26    30    31   ar
    27    31    32   ar
    28    32    33   ar
    29    33    34    1
    30     6     7   ar
    31     7     8    1
    32    18    19    1
    33    19    11    1
    34    19    15    1
    35     7     1   ar
    36    33    27   ar
    37    22    23    1
@<TRIPOS>MOLECULE
*****
 34 37 0 0 0
SMALL
GASTEIGER

@<TRIPOS>ATOM
      1 C          63.5547   89.6991   12.3642 C.ar    1  UNL1        0.0949
      2 C          62.7190   89.4383   11.1461 C.ar    1  UNL1        0.1454
      3 F          62.3630   90.5674   10.2250 F       1  UNL1       -0.2040
      4 C          62.2394   88.0485   10.8493 C.ar    1  UNL1        0.0312
      5 C          62.5954   86.9194   11.7704 C.ar    1  UNL1        0.0204
      6 C          63.4311   87.1802   12.9884 C.ar    1  UNL1        0.0924
      7 C          63.9107   88.5700   13.2853 C.ar    1  UNL1        0.1598
      8 F          64.7464   88.8309   14.5033 F       1  UNL1       -0.2026
      9 C          64.0344   91.0891   12.6611 C.2     1  UNL1        0.2006
     10 O          64.1340   92.0998   11.5574 O.2     1  UNL1       -0.2866
     11 C          66.9358   92.4839   13.7130 C.2     1  UNL1        0.0659
     12 C          68.1082   93.0920   14.4241 C.2     1  UNL1        0.0573
     13 C          68.0586   93.3018   15.9085 C.2     1  UNL1        0.2361
     14 N          66.8367   92.9034   16.6818 N.2     1  UNL1       -0.0340
     15 C          65.6643   92.2953   15.9707 C.2     1  UNL1        0.3601
     16 N          64.3342   91.8074   16.4636 N.2     1  UNL1       -0.0342
     17 C          63.5617   91.2962   15.2838 C.2     1  UNL1        0.2354
     18 C          64.4144   91.4681   14.0618 C.2     1  UNL1        0.0799
     19 C          65.7139   92.0856   14.4863 C.3     1  UNL1        0.1729
     20 N          67.0349   92.0645   10.7441 N.1     1  UNL1       -0.1911
     21 C          66.9854   92.2742   12.2285 C.1     1  UNL1        0.0971
     22 N          63.7871   86.0511   13.9095 N.pl3   1  UNL1       -0.2127
     23 H          64.2177   86.2388   14.7747 H       1  UNL1        0.1738
     24 S          63.4869   84.6361   13.5124 S.O2    1  UNL1        0.0780
     25 O          64.9565   84.3503   13.4202 O.2     1  UNL1       -0.1498
     26 O          62.0173   84.9220   13.6047 O.2     1  UNL1       -0.1498
     27 C          63.1866   83.2212   13.1153 C.ar    1  UNL1        0.1797
     28 C          63.3852   82.7827   11.6946 C.ar    1  UNL1        0.1611
     29 F          63.8840   83.7592   10.6711 F       1  UNL1       -0.2027
     30 C          63.0849   81.3678   11.2974 C.ar    1  UNL1        0.0312
     31 C          62.5861   80.3912   12.3209 C.ar    1  UNL1        0.0047
     32 C          62.3876   80.8297   13.7416 C.ar    1  UNL1        0.0312
     33 C          62.6878   82.2447   14.1388 C.ar    1  UNL1        0.1611
     34 F          62.4893   82.6831   15.5595 F       1  UNL1       -0.2027
@<TRIPOS>BOND
     1    20    21    3
     2    21    11    1
     3    11    12    2
     4    12    13    1
     5    13    14    2
     6    14    15    1
     7    15    16    2
     8    16    17    1
     9    17    18    2
    10    18     9    1
    11     9    10    2
    12     9     1    1
    13     1     2   ar
    14     2     3    1
    15     2     4   ar
    16     4     5   ar
    17     5     6   ar
    18     6    22    1
    19    22    24    1
    20    24    25    2
    21    24    26    2
    22    24    27    1
    23    27    28   ar
    24    28    29    1
    25    28    30   ar
    26    30    31   ar
    27    31    32   ar
    28    32    33   ar
    29    33    34    1
    30     6     7   ar
    31     7     8    1
    32    18    19    1
    33    19    11    1
    34    19    15    1
    35     7     1   ar
    36    33    27   ar
    37    22    23    1
@<TRIPOS>MOLECULE
*****
 34 37 0 0 0
SMALL
GASTEIGER

@<TRIPOS>ATOM
      1 C          62.6723   86.5158   11.9294 C.ar    1  UNL1        0.0949
      2 C          61.6721   86.1620   10.8690 C.ar    1  UNL1        0.1454
      3 F          61.5072   84.7341   10.4400 F       1  UNL1       -0.2040
      4 C          60.8370   87.2361   10.2375 C.ar    1  UNL1        0.0312
      5 C          61.0019   88.6640   10.6665 C.ar    1  UNL1        0.0204
      6 C          62.0021   89.0177   11.7270 C.ar    1  UNL1        0.0924
      7 C          62.8372   87.9436   12.3584 C.ar    1  UNL1        0.1598
      8 F          63.8374   88.2973   13.4189 F       1  UNL1       -0.2026
      9 C          63.5075   85.4416   12.5609 C.2     1  UNL1        0.2006
     10 O          64.3232   85.7466   13.7822 O.2     1  UNL1       -0.2866
     11 C          62.3000   82.5882   13.9285 C.2     1  UNL1        0.0659
     12 C          61.8523   81.2076   14.3070 C.2     1  UNL1        0.0573
     13 C          62.0843   80.0604   13.3688 C.2     1  UNL1        0.2361
     14 N          62.7639   80.2939   12.0522 N.2     1  UNL1       -0.0340
     15 C          63.2116   81.6746   11.6737 C.2     1  UNL1        0.3601
     16 N          63.9023   82.2065   10.4531 N.2     1  UNL1       -0.0342
     17 C          64.0973   83.6824   10.6368 C.2     1  UNL1        0.2354
     18 C          63.5270   84.0626   11.9711 C.2     1  UNL1        0.0799
     19 C          62.9797   82.8217   12.6119 C.3     1  UNL1        0.1729
     20 N          61.8361   84.8826   15.8049 N.1     1  UNL1       -0.1911
     21 C          62.0681   83.7354   14.8667 C.1     1  UNL1        0.0971
     22 N          62.1670   90.4456   12.1560 N.pl3   1  UNL1       -0.2127
     23 H          61.3874   91.0465   12.1770 H       1  UNL1        0.1738
     24 S          63.5197   90.9579   12.5529 S.O2    1  UNL1        0.0780
     25 O          64.0167   90.7278   11.1564 O.2     1  UNL1       -0.1498
     26 O          63.0228   91.1881   13.9493 O.2     1  UNL1       -0.1498
     27 C          64.8724   91.4703   12.9499 C.ar    1  UNL1        0.1797
     28 C          65.5580   90.9156   14.1633 C.ar    1  UNL1        0.1611
     29 F          64.8909   89.8486   14.9796 F       1  UNL1       -0.2027
     30 C          66.9108   91.4279   14.5604 C.ar    1  UNL1        0.0312
     31 C          67.5779   92.4949   13.7441 C.ar    1  UNL1        0.0047
     32 C          66.8923   93.0496   12.5307 C.ar    1  UNL1        0.0312
     33 C          65.5396   92.5373   12.1336 C.ar    1  UNL1        0.1611
     34 F          64.8541   93.0920   10.9202 F       1  UNL1       -0.2027
@<TRIPOS>BOND
     1    20    21    3
     2    21    11    1
     3    11    12    2
     4    12    13    1
     5    13    14    2
     6    14    15    1
     7    15    16    2
     8    16    17    1
     9    17    18    2
    10    18     9    1
    11     9    10    2
    12     9     1    1
    13     1     2   ar
    14     2     3    1
    15     2     4   ar
    16     4     5   ar
    17     5     6   ar
    18     6    22    1
    19    22    24    1
    20    24    25    2
    21    24    26    2
    22    24    27    1
    23    27    28   ar
    24    28    29    1
    25    28    30   ar
    26    30    31   ar
    27    31    32   ar
    28    32    33   ar
    29    33    34    1
    30     6     7   ar
    31     7     8    1
    32    18    19    1
    33    19    11    1
    34    19    15    1
    35     7     1   ar
    36    33    27   ar
    37    22    23    1
@<TRIPOS>MOLECULE
*****
 34 37 0 0 0
SMALL
GASTEIGER

@<TRIPOS>ATOM
      1 C          63.6451   86.3605   12.9035 C.ar    1  UNL1        0.0949
      2 C          62.7470   86.3038   11.7033 C.ar    1  UNL1        0.1454
      3 F          62.4858   84.9925   11.0233 F       1  UNL1       -0.2040
      4 C          62.1103   87.5583   11.1833 C.ar    1  UNL1        0.0312
      5 C          62.3715   88.8696   11.8633 C.ar    1  UNL1        0.0204
      6 C          63.2695   88.9263   13.0634 C.ar    1  UNL1        0.0924
      7 C          63.9063   87.6717   13.5835 C.ar    1  UNL1        0.1598
      8 F          64.8043   87.7283   14.7836 F       1  UNL1       -0.2026
      9 C          64.2819   85.1058   13.4236 C.2     1  UNL1        0.2006
     10 O          65.0876   85.1425   14.6883 O.2     1  UNL1       -0.2866
     11 C          62.3316   82.4690   14.2685 C.2     1  UNL1        0.0659
     12 C          61.5632   81.1894   14.4162 C.2     1  UNL1        0.0573
     13 C          61.6995   80.1093   13.3843 C.2     1  UNL1        0.2361
     14 N          62.6043   80.3089   12.2047 N.2     1  UNL1       -0.0340
     15 C          63.3728   81.5886   12.0570 C.2     1  UNL1        0.3601
     16 N          64.3337   82.0671   11.0093 N.2     1  UNL1       -0.0342
     17 C          64.7912   83.4429   11.3937 C.2     1  UNL1        0.2354
     18 C          64.1131   83.8147   12.6790 C.2     1  UNL1        0.0799
     19 C          63.2364   82.6686   13.0889 C.3     1  UNL1        0.1729
     20 N          62.0590   84.6292   16.3324 N.1     1  UNL1       -0.1911
     21 C          62.1953   83.5491   15.3005 C.1     1  UNL1        0.0971
     22 N          63.5307   90.2375   13.7434 N.pl3   1  UNL1       -0.2127
     23 H          63.1918   90.3958   14.6541 H       1  UNL1        0.1738
     24 S          64.3082   91.3075   13.0359 S.O2    1  UNL1        0.0780
     25 O          65.5839   90.7492   13.5935 O.2     1  UNL1       -0.1498
     26 O          63.0325   91.8657   12.4783 O.2     1  UNL1       -0.1498
     27 C          65.0856   92.3775   12.3283 C.ar    1  UNL1        0.1797
     28 C          65.8828   93.3723   13.1188 C.ar    1  UNL1        0.1611
     29 F          65.9026   93.2971   14.6167 F       1  UNL1       -0.2027
     30 C          66.6602   94.4424   12.4113 C.ar    1  UNL1        0.0312
     31 C          66.6405   94.5177   10.9133 C.ar    1  UNL1        0.0047
     32 C          65.8432   93.5228   10.1229 C.ar    1  UNL1        0.0312
     33 C          65.0658   92.4528   10.8304 C.ar    1  UNL1        0.1611
     34 F          64.2686   91.4580   10.0399 F       1  UNL1       -0.2027
@<TRIPOS>BOND
     1    20    21    3
     2    21    11    1
     3    11    12    2
     4    12    13    1
     5    13    14    2
     6    14    15    1
     7    15    16    2
     8    16    17    1
     9    17    18    2
    10    18     9    1
    11     9    10    2
    12     9     1    1
    13     1     2   ar
    14     2     3    1
    15     2     4   ar
    16     4     5   ar
    17     5     6   ar
    18     6    22    1
    19    22    24    1
    20    24    25    2
    21    24    26    2
    22    24    27    1
    23    27    28   ar
    24    28    29    1
    25    28    30   ar
    26    30    31   ar
    27    31    32   ar
    28    32    33   ar
    29    33    34    1
    30     6     7   ar
    31     7     8    1
    32    18    19    1
    33    19    11    1
    34    19    15    1
    35     7     1   ar
    36    33    27   ar
    37    22    23    1
@<TRIPOS>MOLECULE
*****
 34 37 0 0 0
SMALL
GASTEIGER

@<TRIPOS>ATOM
      1 C          61.5749   88.4244   11.1301 C.ar    1  UNL1        0.0949
      2 C          60.7282   88.4792    9.8932 C.ar    1  UNL1        0.1454
      3 F          59.7647   89.6113    9.6934 F       1  UNL1       -0.2040
      4 C          60.8452   87.4019    8.8560 C.ar    1  UNL1        0.0312
      5 C          61.8087   86.2698    9.0558 C.ar    1  UNL1        0.0204
      6 C          62.6554   86.2150   10.2928 C.ar    1  UNL1        0.0924
      7 C          62.5385   87.2923   11.3299 C.ar    1  UNL1        0.1598
      8 F          63.3851   87.2376   12.5670 F       1  UNL1       -0.2026
      9 C          61.4581   89.5018   12.1674 C.2     1  UNL1        0.2006
     10 O          60.1565   90.2230   12.3562 O.2     1  UNL1       -0.2866
     11 C          64.1157   91.4186   11.3111 C.2     1  UNL1        0.0659
     12 C          65.3790   92.2169   11.1827 C.2     1  UNL1        0.0573
     13 C          66.3289   92.3091   12.3399 C.2     1  UNL1        0.2361
     14 N          66.0155   91.6029   13.6256 N.2     1  UNL1       -0.0340
     15 C          64.7521   90.8046   13.7540 C.2     1  UNL1        0.3601
     16 N          64.1798   90.0069   14.8881 N.2     1  UNL1       -0.0342
     17 C          62.8762   89.4218   14.4318 C.2     1  UNL1        0.2354
     18 C          62.6428   89.8578   13.0157 C.2     1  UNL1        0.0799
     19 C          63.8022   90.7125   12.5968 C.3     1  UNL1        0.1729
     20 N          62.2158   91.2343    8.9966 N.1     1  UNL1       -0.1911
     21 C          63.1657   91.3265   10.1539 C.1     1  UNL1        0.0971
     22 N          63.6189   85.0829   10.4926 N.pl3   1  UNL1       -0.2127
     23 H          64.4993   85.1023   10.0524 H       1  UNL1        0.1738
     24 S          63.2411   83.9213   11.3632 S.O2    1  UNL1        0.0780
     25 O          61.7985   84.3218   11.2715 O.2     1  UNL1       -0.1498
     26 O          64.6837   83.5208   11.4549 O.2     1  UNL1       -0.1498
     27 C          62.8633   82.7597   12.2337 C.ar    1  UNL1        0.1797
     28 C          62.4625   82.9909   13.6606 C.ar    1  UNL1        0.1611
     29 F          62.4393   84.3837   14.2168 F       1  UNL1       -0.2027
     30 C          62.0847   81.8293   14.5312 C.ar    1  UNL1        0.0312
     31 C          62.1078   80.4364   13.9750 C.ar    1  UNL1        0.0047
     32 C          62.5087   80.2052   12.5482 C.ar    1  UNL1        0.0312
     33 C          62.8865   81.3668   11.6775 C.ar    1  UNL1        0.1611
     34 F          63.2873   81.1355   10.2507 F       1  UNL1       -0.2027
@<TRIPOS>BOND
     1    20    21    3
     2    21    11    1
     3    11    12    2
     4    12    13    1
     5    13    14    2
     6    14    15    1
     7    15    16    2
     8    16    17    1
     9    17    18    2
    10    18     9    1
    11     9    10    2
    12     9     1    1
    13     1     2   ar
    14     2     3    1
    15     2     4   ar
    16     4     5   ar
    17     5     6   ar
    18     6    22    1
    19    22    24    1
    20    24    25    2
    21    24    26    2
    22    24    27    1
    23    27    28   ar
    24    28    29    1
    25    28    30   ar
    26    30    31   ar
    27    31    32   ar
    28    32    33   ar
    29    33    34    1
    30     6     7   ar
    31     7     8    1
    32    18    19    1
    33    19    11    1
    34    19    15    1
    35     7     1   ar
    36    33    27   ar
    37    22    23    1
