@<TRIPOS>MOLECULE
*****
 36 40 0 0 0
SMALL
GASTEIGER

@<TRIPOS>ATOM
      1 C          63.0711   85.7874   12.5356 C.3     1  UNL1        0.0795
      2 C          63.9202   85.4608   13.7282 C.3     1  UNL1        0.0178
      3 C          64.4787   86.5648   14.5763 C.3     1  UNL1        0.0029
      4 C          64.1881   87.9955   14.2317 C.3     1  UNL1        0.0178
      5 C          63.3390   88.3221   13.0391 C.3     1  UNL1        0.0799
      6 N          62.7805   87.2181   12.1910 N.3     1  UNL1       -0.1583
      7 C          63.0484   89.7528   12.6945 C.3     1  UNL1        0.0237
      8 C          61.5534   89.7518   12.8174 C.3     1  UNL1        0.0019
      9 C          62.2737   91.0106   12.4342 C.3     1  UNL1        0.0019
     10 C          64.4424   90.2506   12.4520 C.3     1  UNL1        0.0866
     11 C          64.8927   91.5456   13.0603 C.2     1  UNL1        0.2258
     12 O          64.9212   92.0854   14.4595 O.2     1  UNL1       -0.2749
     13 N          65.4602   92.6265   12.1886 N.am    1  UNL1       -0.2768
     14 C          65.5774   92.4123   10.7087 C.3     1  UNL1        0.1093
     15 C          66.1448   93.4932    9.8371 C.3     1  UNL1        0.0775
     16 C          66.7440   94.7904    9.3806 C.3     1  UNL1        0.0191
     17 C          66.9363   95.6617   10.5864 C.3     1  UNL1        0.0191
     18 C          66.4560   94.9030   11.7880 C.3     1  UNL1        0.0775
     19 C          65.9105   93.9216   12.7970 C.3     1  UNL1        0.1093
     20 N          65.9669   93.5628   11.3249 N.3     1  UNL1       -0.2699
     21 C          65.3994   92.4819   12.1965 C.3     1  UNL1        0.1043
     22 C          66.1534   92.0233   13.4094 C.3     1  UNL1        0.1544
     23 O          67.4936   91.4854   13.8145 O.3     1  UNL1       -0.3805
     24 H          67.5116   90.5253   13.6774 H       1  UNL1        0.2105
     25 S          61.9314   87.5447   10.9984 S.O2    1  UNL1        0.0632
     26 O          63.0394   88.0346   10.1138 O.2     1  UNL1       -0.1528
     27 O          60.7110   87.0912   11.7431 O.2     1  UNL1       -0.1528
     28 C          61.0824   87.8713    9.8057 C.ar    1  UNL1        0.1222
     29 C          60.9262   89.2962    9.3640 C.ar    1  UNL1        0.0208
     30 C          60.0772   89.6229    8.1713 C.ar    1  UNL1        0.0128
     31 C          59.3844   88.5247    7.4204 C.ar    1  UNL1        0.0578
     32 CL         58.6356   89.1942    6.3064 Cl      1  UNL1       -0.0822
     33 C          59.5406   87.0998    7.8621 C.ar    1  UNL1        0.0128
     34 C          60.3896   86.7730    9.0548 C.ar    1  UNL1        0.0208
     35 C          63.4386   83.7266   10.9967 C.3     1  UNL1        0.0015
     36 C          62.5127   84.6834   11.6876 C.3     1  UNL1        0.0177
@<TRIPOS>BOND
     1    35    36    1
     2     1    36    1
     3     1     2    1
     4     2     3    1
     5     3     4    1
     6     4     5    1
     7     5     7    1
     8     7    10    1
     9    10    11    1
    10    11    12    2
    11    11    13   am
    12    13    14    1
    13    14    15    1
    14    15    16    1
    15    16    17    1
    16    17    18    1
    17    18    19    1
    18    18    20    1
    19    20    21    1
    20    21    22    1
    21    22    23    1
    22     7     8    1
    23     8     9    1
    24     5     6    1
    25     6    25    1
    26    25    26    2
    27    25    27    2
    28    25    28    1
    29    28    29   ar
    30    29    30   ar
    31    30    31   ar
    32    31    32    1
    33    31    33   ar
    34    33    34   ar
    35     6     1    1
    36    34    28   ar
    37     9     7    1
    38    19    13    1
    39    20    15    1
    40    23    24    1
@<TRIPOS>MOLECULE
*****
 36 40 0 0 0
SMALL
GASTEIGER

@<TRIPOS>ATOM
      1 C          63.0395   85.9426   12.5549 C.3     1  UNL1        0.0795
      2 C          63.9013   85.6755   13.7532 C.3     1  UNL1        0.0178
      3 C          64.4829   86.8201   14.5289 C.3     1  UNL1        0.0029
      4 C          64.2027   88.2318   14.1063 C.3     1  UNL1        0.0178
      5 C          63.3408   88.4988   12.9080 C.3     1  UNL1        0.0799
      6 N          62.7592   87.3543   12.1323 N.3     1  UNL1       -0.1583
      7 C          63.0606   89.9105   12.4854 C.3     1  UNL1        0.0237
      8 C          61.6021   89.9994   12.8246 C.3     1  UNL1        0.0019
      9 C          62.3077   91.1828   12.2315 C.3     1  UNL1        0.0019
     10 C          64.4217   90.3120   11.9994 C.3     1  UNL1        0.0866
     11 C          64.8695   91.7387   12.1175 C.2     1  UNL1        0.2258
     12 O          64.5980   92.9849   11.3282 O.2     1  UNL1       -0.2749
     13 N          65.7950   92.1449   13.2260 N.am    1  UNL1       -0.2768
     14 C          66.2726   91.1244   14.2162 C.3     1  UNL1        0.1093
     15 C          67.1980   91.5307   15.3246 C.3     1  UNL1        0.0775
     16 C          68.0728   92.3536   16.2232 C.3     1  UNL1        0.0191
     17 C          68.0557   93.7664   15.7197 C.3     1  UNL1        0.0191
     18 C          67.1702   93.8167   14.5100 C.3     1  UNL1        0.0775
     19 C          66.2429   93.5716   13.3442 C.3     1  UNL1        0.1093
     20 N          66.6401   92.4349   14.2658 N.3     1  UNL1       -0.2699
     21 C          65.7147   92.0287   13.1574 C.3     1  UNL1        0.1043
     22 C          66.0418   92.3868   11.7380 C.3     1  UNL1        0.1544
     23 O          67.1732   92.3376   10.7544 O.3     1  UNL1       -0.3805
     24 H          67.7438   93.1121   10.8788 H       1  UNL1        0.2105
     25 S          61.8974   87.6213   10.9340 S.O2    1  UNL1        0.0632
     26 O          63.0082   87.9365    9.9765 O.2     1  UNL1       -0.1528
     27 O          60.6725   87.3366   11.7516 O.2     1  UNL1       -0.1528
     28 C          61.0356   87.8884    9.7357 C.ar    1  UNL1        0.1222
     29 C          60.8181   89.2967    9.2673 C.ar    1  UNL1        0.0208
     30 C          59.9563   89.5639    8.0690 C.ar    1  UNL1        0.0128
     31 C          59.3121   88.4227    7.3391 C.ar    1  UNL1        0.0578
     32 CL         58.5355   89.0381    6.2129 Cl      1  UNL1       -0.0822
     33 C          59.5296   87.0145    7.8075 C.ar    1  UNL1        0.0128
     34 C          60.3913   86.7473    9.0058 C.ar    1  UNL1        0.0208
     35 C          63.3110   84.0425   10.8040 C.3     1  UNL1        0.0015
     36 C          62.4579   84.7980   11.7793 C.3     1  UNL1        0.0177
@<TRIPOS>BOND
     1    35    36    1
     2     1    36    1
     3     1     2    1
     4     2     3    1
     5     3     4    1
     6     4     5    1
     7     5     7    1
     8     7    10    1
     9    10    11    1
    10    11    12    2
    11    11    13   am
    12    13    14    1
    13    14    15    1
    14    15    16    1
    15    16    17    1
    16    17    18    1
    17    18    19    1
    18    18    20    1
    19    20    21    1
    20    21    22    1
    21    22    23    1
    22     7     8    1
    23     8     9    1
    24     5     6    1
    25     6    25    1
    26    25    26    2
    27    25    27    2
    28    25    28    1
    29    28    29   ar
    30    29    30   ar
    31    30    31   ar
    32    31    32    1
    33    31    33   ar
    34    33    34   ar
    35     6     1    1
    36    34    28   ar
    37     9     7    1
    38    19    13    1
    39    20    15    1
    40    23    24    1
@<TRIPOS>MOLECULE
*****
 36 40 0 0 0
SMALL
GASTEIGER

@<TRIPOS>ATOM
      1 C          65.1056   91.6900   12.5049 C.3     1  UNL1        0.0795
      2 C          66.2122   92.3523   13.2709 C.3     1  UNL1        0.0178
      3 C          66.5109   91.9252   14.6774 C.3     1  UNL1        0.0029
      4 C          65.7031   90.8356   15.3179 C.3     1  UNL1        0.0178
      5 C          64.5966   90.1732   14.5518 C.3     1  UNL1        0.0799
      6 N          64.2978   90.6004   13.1453 N.3     1  UNL1       -0.1583
      7 C          63.7888   89.0836   15.1923 C.3     1  UNL1        0.0237
      8 C          62.9246   89.9022   16.1052 C.3     1  UNL1        0.0019
      9 C          62.7783   88.4097   16.0726 C.3     1  UNL1        0.0019
     10 C          64.3723   87.8866   14.5020 C.3     1  UNL1        0.0866
     11 C          64.1978   86.5199   15.0950 C.2     1  UNL1        0.2258
     12 O          64.3811   85.9494   16.4701 O.2     1  UNL1       -0.2749
     13 N          63.7440   85.3801   14.2317 N.am    1  UNL1       -0.2768
     14 C          63.4647   85.6071   12.7755 C.3     1  UNL1        0.1093
     15 C          63.0109   84.4674   11.9124 C.3     1  UNL1        0.0775
     16 C          62.5981   83.0991   11.4569 C.3     1  UNL1        0.0191
     17 C          62.6587   82.1790   12.6400 C.3     1  UNL1        0.0191
     18 C          63.1089   82.9786   13.8266 C.3     1  UNL1        0.0775
     19 C          63.5696   84.0133   14.8247 C.3     1  UNL1        0.1093
     20 N          63.3267   84.3929   13.3769 N.3     1  UNL1       -0.2699
     21 C          63.7804   85.5326   14.2400 C.3     1  UNL1        0.1043
     22 C          65.1168   85.4736   14.9189 C.3     1  UNL1        0.1544
     23 O          66.5452   85.1028   14.6505 O.3     1  UNL1       -0.3805
     24 H          66.6585   84.1466   14.7678 H       1  UNL1        0.2105
     25 S          63.1913   89.9380   12.3793 S.O2    1  UNL1        0.0632
     26 O          63.9423   88.6919   12.0141 O.2     1  UNL1       -0.1528
     27 O          62.2989   91.1121   12.6531 O.2     1  UNL1       -0.1528
     28 C          62.0848   89.2755   11.6132 C.ar    1  UNL1        0.1222
     29 C          62.4079   88.3618   10.4684 C.ar    1  UNL1        0.0208
     30 C          61.3015   87.6993    9.7023 C.ar    1  UNL1        0.0128
     31 C          59.8720   87.9506   10.0810 C.ar    1  UNL1        0.0578
     32 CL         59.0433   87.1450    9.1248 Cl      1  UNL1       -0.0822
     33 C          59.5489   88.8643   11.2258 C.ar    1  UNL1        0.0128
     34 C          60.6553   89.5268   11.9919 C.ar    1  UNL1        0.0208
     35 C          65.6364   93.1833   10.4462 C.3     1  UNL1        0.0015
     36 C          64.8070   92.1172   11.0984 C.3     1  UNL1        0.0177
@<TRIPOS>BOND
     1    35    36    1
     2     1    36    1
     3     1     2    1
     4     2     3    1
     5     3     4    1
     6     4     5    1
     7     5     7    1
     8     7    10    1
     9    10    11    1
    10    11    12    2
    11    11    13   am
    12    13    14    1
    13    14    15    1
    14    15    16    1
    15    16    17    1
    16    17    18    1
    17    18    19    1
    18    18    20    1
    19    20    21    1
    20    21    22    1
    21    22    23    1
    22     7     8    1
    23     8     9    1
    24     5     6    1
    25     6    25    1
    26    25    26    2
    27    25    27    2
    28    25    28    1
    29    28    29   ar
    30    29    30   ar
    31    30    31   ar
    32    31    32    1
    33    31    33   ar
    34    33    34   ar
    35     6     1    1
    36    34    28   ar
    37     9     7    1
    38    19    13    1
    39    20    15    1
    40    23    24    1
@<TRIPOS>MOLECULE
*****
 36 40 0 0 0
SMALL
GASTEIGER

@<TRIPOS>ATOM
      1 C          59.9547   88.8166    9.2670 C.3     1  UNL1        0.0795
      2 C          59.0170   88.2174    8.2612 C.3     1  UNL1        0.0178
      3 C          59.2101   86.8012    7.8063 C.3     1  UNL1        0.0029
      4 C          60.3410   85.9841    8.3572 C.3     1  UNL1        0.0178
      5 C          61.2788   86.5833    9.3629 C.3     1  UNL1        0.0799
      6 N          61.0856   87.9995    9.8179 N.3     1  UNL1       -0.1583
      7 C          62.4097   85.7662    9.9138 C.3     1  UNL1        0.0237
      8 C          63.3287   85.7608    8.7283 C.3     1  UNL1        0.0019
      9 C          63.7234   85.0458    9.9865 C.3     1  UNL1        0.0019
     10 C          61.8835   85.4879   11.2905 C.3     1  UNL1        0.0866
     11 C          62.8128   85.0081   12.3658 C.2     1  UNL1        0.2258
     12 O          63.7680   85.6913   13.2989 O.2     1  UNL1       -0.2749
     13 N          62.9047   83.5440   12.6793 N.am    1  UNL1       -0.2768
     14 C          62.0674   82.5598   11.9176 C.3     1  UNL1        0.1093
     15 C          62.1594   81.0959   12.2311 C.3     1  UNL1        0.0775
     16 C          62.5620   79.7935   12.8570 C.3     1  UNL1        0.0191
     17 C          63.5820   80.0847   13.9176 C.3     1  UNL1        0.0191
     18 C          63.8097   81.5670   13.9471 C.3     1  UNL1        0.0775
     19 C          63.8341   83.0642   13.7545 C.3     1  UNL1        0.1093
     20 N          62.9305   82.1920   12.9048 N.3     1  UNL1       -0.2699
     21 C          62.8385   83.6559   12.5913 C.3     1  UNL1        0.1043
     22 C          62.6101   84.6464   13.6945 C.3     1  UNL1        0.1544
     23 O          61.7724   84.8518   14.9216 O.3     1  UNL1       -0.3805
     24 H          60.9142   85.2262   14.6683 H       1  UNL1        0.2105
     25 S          62.0234   88.5987   10.8236 S.O2    1  UNL1        0.0632
     26 O          61.2963   88.1344   12.0508 O.2     1  UNL1       -0.1528
     27 O          62.8709   89.1401    9.7108 O.2     1  UNL1       -0.1528
     28 C          62.9611   89.1979   11.8295 C.ar    1  UNL1        0.1222
     29 C          63.4580   90.6015   11.6483 C.ar    1  UNL1        0.0208
     30 C          64.3958   91.2008   12.6541 C.ar    1  UNL1        0.0128
     31 C          64.8364   90.3964   13.8410 C.ar    1  UNL1        0.0578
     32 CL         65.7541   91.2863   14.6258 Cl      1  UNL1       -0.0822
     33 C          64.3394   88.9928   14.0222 C.ar    1  UNL1        0.0128
     34 C          63.4017   88.3935   13.0164 C.ar    1  UNL1        0.0208
     35 C          59.3742   90.5180   11.1426 C.3     1  UNL1        0.0015
     36 C          59.7615   90.2328    9.7219 C.3     1  UNL1        0.0177
@<TRIPOS>BOND
     1    35    36    1
     2     1    36    1
     3     1     2    1
     4     2     3    1
     5     3     4    1
     6     4     5    1
     7     5     7    1
     8     7    10    1
     9    10    11    1
    10    11    12    2
    11    11    13   am
    12    13    14    1
    13    14    15    1
    14    15    16    1
    15    16    17    1
    16    17    18    1
    17    18    19    1
    18    18    20    1
    19    20    21    1
    20    21    22    1
    21    22    23    1
    22     7     8    1
    23     8     9    1
    24     5     6    1
    25     6    25    1
    26    25    26    2
    27    25    27    2
    28    25    28    1
    29    28    29   ar
    30    29    30   ar
    31    30    31   ar
    32    31    32    1
    33    31    33   ar
    34    33    34   ar
    35     6     1    1
    36    34    28   ar
    37     9     7    1
    38    19    13    1
    39    20    15    1
    40    23    24    1
@<TRIPOS>MOLECULE
*****
 36 40 0 0 0
SMALL
GASTEIGER

@<TRIPOS>ATOM
      1 C          64.9995   91.5006   12.7054 C.3     1  UNL1        0.0795
      2 C          65.1952   92.3733   11.5012 C.3     1  UNL1        0.0178
      3 C          64.2969   92.2198   10.3098 C.3     1  UNL1        0.0029
      4 C          63.2029   91.1937   10.3226 C.3     1  UNL1        0.0178
      5 C          63.0072   90.3210   11.5268 C.3     1  UNL1        0.0799
      6 N          63.9055   90.4745   12.7182 N.3     1  UNL1       -0.1583
      7 C          61.9132   89.2949   11.5396 C.3     1  UNL1        0.0237
      8 C          60.7204   90.1880   11.7120 C.3     1  UNL1        0.0019
      9 C          60.5369   88.7026   11.6107 C.3     1  UNL1        0.0019
     10 C          62.7259   88.0455   11.3718 C.3     1  UNL1        0.0866
     11 C          62.0666   86.7774   10.9163 C.2     1  UNL1        0.2258
     12 O          60.9651   86.4655    9.9471 O.2     1  UNL1       -0.2749
     13 N          62.5117   85.4582   11.4747 N.am    1  UNL1       -0.2768
     14 C          63.6161   85.4071   12.4885 C.3     1  UNL1        0.1093
     15 C          64.0611   84.0879   13.0468 C.3     1  UNL1        0.0775
     16 C          64.1697   82.6162   13.3157 C.3     1  UNL1        0.0191
     17 C          63.1515   81.9137   12.4674 C.3     1  UNL1        0.0191
     18 C          62.4135   82.9512   11.6743 C.3     1  UNL1        0.0775
     19 C          61.8524   84.1902   11.0192 C.3     1  UNL1        0.1093
     20 N          62.9757   84.2949   12.0323 N.3     1  UNL1       -0.2699
     21 C          62.5307   85.6141   11.4740 C.3     1  UNL1        0.1043
     22 C          62.3848   85.7903    9.9915 C.3     1  UNL1        0.1544
     23 O          63.1902   85.7425    8.7271 O.3     1  UNL1       -0.3805
     24 H          63.6300   86.5963    8.5914 H       1  UNL1        0.2105
     25 S          63.7098   89.6018   13.9225 S.O2    1  UNL1        0.0632
     26 O          64.5776   88.4659   13.4680 O.2     1  UNL1       -0.1528
     27 O          62.8115   90.6392   14.5282 O.2     1  UNL1       -0.1528
     28 C          63.5142   88.7292   15.1267 C.ar    1  UNL1        0.1222
     29 C          63.0108   89.3225   16.4090 C.ar    1  UNL1        0.0208
     30 C          62.8151   88.4499   17.6133 C.ar    1  UNL1        0.0128
     31 C          63.1229   86.9839   17.5351 C.ar    1  UNL1        0.0578
     32 CL         62.8197   86.4249   18.8937 Cl      1  UNL1       -0.0822
     33 C          63.6263   86.3905   16.2528 C.ar    1  UNL1        0.0128
     34 C          63.8219   87.2631   15.0486 C.ar    1  UNL1        0.0208
     35 C          67.3509   91.9728   13.7044 C.3     1  UNL1        0.0015
     36 C          65.8978   91.6541   13.8968 C.3     1  UNL1        0.0177
@<TRIPOS>BOND
     1    35    36    1
     2     1    36    1
     3     1     2    1
     4     2     3    1
     5     3     4    1
     6     4     5    1
     7     5     7    1
     8     7    10    1
     9    10    11    1
    10    11    12    2
    11    11    13   am
    12    13    14    1
    13    14    15    1
    14    15    16    1
    15    16    17    1
    16    17    18    1
    17    18    19    1
    18    18    20    1
    19    20    21    1
    20    21    22    1
    21    22    23    1
    22     7     8    1
    23     8     9    1
    24     5     6    1
    25     6    25    1
    26    25    26    2
    27    25    27    2
    28    25    28    1
    29    28    29   ar
    30    29    30   ar
    31    30    31   ar
    32    31    32    1
    33    31    33   ar
    34    33    34   ar
    35     6     1    1
    36    34    28   ar
    37     9     7    1
    38    19    13    1
    39    20    15    1
    40    23    24    1
@<TRIPOS>MOLECULE
*****
 36 40 0 0 0
SMALL
GASTEIGER

@<TRIPOS>ATOM
      1 C          65.1052   91.3609   12.5506 C.3     1  UNL1        0.0795
      2 C          65.2920   92.2361   11.3467 C.3     1  UNL1        0.0178
      3 C          64.2534   92.2548   10.2646 C.3     1  UNL1        0.0029
      4 C          63.0279   91.3985   10.3864 C.3     1  UNL1        0.0178
      5 C          62.8411   90.5233   11.5902 C.3     1  UNL1        0.0799
      6 N          63.8797   90.5046   12.6723 N.3     1  UNL1       -0.1583
      7 C          61.6156   89.6670   11.7120 C.3     1  UNL1        0.0237
      8 C          60.8719   90.4255   12.7711 C.3     1  UNL1        0.0019
      9 C          60.2796   89.1773   12.1868 C.3     1  UNL1        0.0019
     10 C          61.9336   88.6111   10.6952 C.3     1  UNL1        0.0866
     11 C          60.8355   88.0122    9.8673 C.2     1  UNL1        0.2258
     12 O          59.3559   88.2414    9.7760 O.2     1  UNL1       -0.2749
     13 N          61.1493   86.9358    8.8708 N.am    1  UNL1       -0.2768
     14 C          62.5613   86.4583    8.7022 C.3     1  UNL1        0.1093
     15 C          62.8750   85.3820    7.7057 C.3     1  UNL1        0.0775
     16 C          62.7257   84.3366    6.6404 C.3     1  UNL1        0.0191
     17 C          61.2765   84.2665    6.2598 C.3     1  UNL1        0.0191
     18 C          60.5302   85.2685    7.0898 C.3     1  UNL1        0.0775
     19 C          60.0512   86.3369    8.0429 C.3     1  UNL1        0.1093
     20 N          61.5182   85.9579    7.9835 N.3     1  UNL1       -0.2699
     21 C          61.2044   87.0343    8.9800 C.3     1  UNL1        0.1043
     22 C          60.3352   88.1914    8.5855 C.3     1  UNL1        0.1544
     23 O          60.2661   89.3112    7.5899 O.3     1  UNL1       -0.3805
     24 H          60.7893   90.0622    7.9111 H       1  UNL1        0.2105
     25 S          63.6929   89.6294   13.8762 S.O2    1  UNL1        0.0632
     26 O          63.9958   88.3241   13.2020 O.2     1  UNL1       -0.1528
     27 O          63.3647   90.8370   14.7031 O.2     1  UNL1       -0.1528
     28 C          63.5061   88.7542   15.0800 C.ar    1  UNL1        0.1222
     29 C          63.0346   89.3491   16.3737 C.ar    1  UNL1        0.0208
     30 C          62.8478   88.4739   17.5775 C.ar    1  UNL1        0.0128
     31 C          63.1324   87.0039   17.4875 C.ar    1  UNL1        0.0578
     32 CL         62.8455   86.4433   18.8489 Cl      1  UNL1       -0.0822
     33 C          63.6039   86.4091   16.1938 C.ar    1  UNL1        0.0128
     34 C          63.7907   87.2842   14.9900 C.ar    1  UNL1        0.0208
     35 C          67.3367   92.2472   13.5430 C.3     1  UNL1        0.0015
     36 C          66.1438   91.3422   13.6326 C.3     1  UNL1        0.0177
@<TRIPOS>BOND
     1    35    36    1
     2     1    36    1
     3     1     2    1
     4     2     3    1
     5     3     4    1
     6     4     5    1
     7     5     7    1
     8     7    10    1
     9    10    11    1
    10    11    12    2
    11    11    13   am
    12    13    14    1
    13    14    15    1
    14    15    16    1
    15    16    17    1
    16    17    18    1
    17    18    19    1
    18    18    20    1
    19    20    21    1
    20    21    22    1
    21    22    23    1
    22     7     8    1
    23     8     9    1
    24     5     6    1
    25     6    25    1
    26    25    26    2
    27    25    27    2
    28    25    28    1
    29    28    29   ar
    30    29    30   ar
    31    30    31   ar
    32    31    32    1
    33    31    33   ar
    34    33    34   ar
    35     6     1    1
    36    34    28   ar
    37     9     7    1
    38    19    13    1
    39    20    15    1
    40    23    24    1
@<TRIPOS>MOLECULE
*****
 36 40 0 0 0
SMALL
GASTEIGER

@<TRIPOS>ATOM
      1 C          62.7300   82.7754   14.2962 C.3     1  UNL1        0.0795
      2 C          62.3854   81.3296   14.0938 C.3     1  UNL1        0.0178
      3 C          62.2876   80.7690   12.7060 C.3     1  UNL1        0.0029
      4 C          62.5345   81.6543   11.5205 C.3     1  UNL1        0.0178
      5 C          62.8792   83.1000   11.7229 C.3     1  UNL1        0.0799
      6 N          62.9769   83.6606   13.1107 N.3     1  UNL1       -0.1583
      7 C          63.1260   83.9853   10.5374 C.3     1  UNL1        0.0237
      8 C          64.5129   83.5474   10.1697 C.3     1  UNL1        0.0019
      9 C          63.8248   84.6117    9.3671 C.3     1  UNL1        0.0019
     10 C          61.8251   84.7305   10.4933 C.3     1  UNL1        0.0866
     11 C          61.6269   85.8351    9.4980 C.2     1  UNL1        0.2258
     12 O          61.9210   85.9846    8.0348 O.2     1  UNL1       -0.2749
     13 N          61.0080   87.1315    9.9298 N.am    1  UNL1       -0.2768
     14 C          60.5872   87.3233   11.3567 C.3     1  UNL1        0.1093
     15 C          59.9683   88.6196   11.7884 C.3     1  UNL1        0.0775
     16 C          59.4193   90.0154   11.7669 C.3     1  UNL1        0.0191
     17 C          59.5479   90.5424   10.3684 C.3     1  UNL1        0.0191
     18 C          60.1762   89.4724    9.5256 C.3     1  UNL1        0.0775
     19 C          60.8098   88.2362    8.9345 C.3     1  UNL1        0.1093
     20 N          60.4361   88.2840   10.4033 N.3     1  UNL1       -0.2699
     21 C          61.0550   86.9877    9.9716 C.3     1  UNL1        0.1043
     22 C          60.4983   86.2468    8.7920 C.3     1  UNL1        0.1544
     23 O          59.2215   86.0653    8.0262 O.3     1  UNL1       -0.3805
     24 H          58.6756   85.3927    8.4625 H       1  UNL1        0.2105
     25 S          63.3215   85.1064   13.3131 S.O2    1  UNL1        0.0632
     26 O          61.9353   85.6514   13.1352 O.2     1  UNL1       -0.1528
     27 O          64.7603   84.7348   13.5172 O.2     1  UNL1       -0.1528
     28 C          63.6661   86.5522   13.5155 C.ar    1  UNL1        0.1222
     29 C          64.3812   86.9854   14.7608 C.ar    1  UNL1        0.0208
     30 C          64.7258   88.4312   14.9633 C.ar    1  UNL1        0.0128
     31 C          64.3552   89.4437   13.9204 C.ar    1  UNL1        0.0578
     32 CL         64.8412   90.7656   14.4366 Cl      1  UNL1       -0.0822
     33 C          63.6400   89.0105   12.6752 C.ar    1  UNL1        0.0128
     34 C          63.2954   87.5647   12.4727 C.ar    1  UNL1        0.0208
     35 C          62.0091   84.5324   16.0692 C.3     1  UNL1        0.0015
     36 C          62.8277   83.3359   15.6841 C.3     1  UNL1        0.0177
@<TRIPOS>BOND
     1    35    36    1
     2     1    36    1
     3     1     2    1
     4     2     3    1
     5     3     4    1
     6     4     5    1
     7     5     7    1
     8     7    10    1
     9    10    11    1
    10    11    12    2
    11    11    13   am
    12    13    14    1
    13    14    15    1
    14    15    16    1
    15    16    17    1
    16    17    18    1
    17    18    19    1
    18    18    20    1
    19    20    21    1
    20    21    22    1
    21    22    23    1
    22     7     8    1
    23     8     9    1
    24     5     6    1
    25     6    25    1
    26    25    26    2
    27    25    27    2
    28    25    28    1
    29    28    29   ar
    30    29    30   ar
    31    30    31   ar
    32    31    32    1
    33    31    33   ar
    34    33    34   ar
    35     6     1    1
    36    34    28   ar
    37     9     7    1
    38    19    13    1
    39    20    15    1
    40    23    24    1
@<TRIPOS>MOLECULE
*****
 36 40 0 0 0
SMALL
GASTEIGER

@<TRIPOS>ATOM
      1 C          64.1807   94.6966   -0.5835 C.3     1  UNL1        0.0795
      2 C          64.7433   95.5033   -1.7161 C.3     1  UNL1        0.0178
      3 C          63.8481   96.4085   -2.5094 C.3     1  UNL1        0.0029
      4 C          62.3904   96.5071   -2.1700 C.3     1  UNL1        0.0178
      5 C          61.8278   95.7004   -1.0374 C.3     1  UNL1        0.0799
      6 N          62.7229   94.7952   -0.2442 N.3     1  UNL1       -0.1583
      7 C          60.3700   95.7991   -0.6981 C.3     1  UNL1        0.0237
      8 C          60.4211   96.8550    0.3662 C.3     1  UNL1        0.0019
      9 C          59.1058   96.2524   -0.0301 C.3     1  UNL1        0.0019
     10 C          59.8126   94.7775   -1.6443 C.3     1  UNL1        0.0866
     11 C          58.6432   93.9330   -1.2326 C.2     1  UNL1        0.2258
     12 O          57.9775   93.6438    0.0801 O.2     1  UNL1       -0.2749
     13 N          57.8820   93.1525   -2.2629 N.am    1  UNL1       -0.2768
     14 C          58.2901   93.2165   -3.7049 C.3     1  UNL1        0.1093
     15 C          57.5288   92.4361   -4.7351 C.3     1  UNL1        0.0775
     16 C          56.5235   91.5317   -5.3843 C.3     1  UNL1        0.0191
     17 C          55.6127   91.0072   -4.3140 C.3     1  UNL1        0.0191
     18 C          56.0553   91.5874   -3.0034 C.3     1  UNL1        0.0775
     19 C          56.7126   92.3080   -1.8512 C.3     1  UNL1        0.1093
     20 N          57.2395   92.4705   -3.2637 N.3     1  UNL1       -0.2699
     21 C          58.0007   93.2509   -2.2335 C.3     1  UNL1        0.1043
     22 C          58.4532   92.5823   -0.9692 C.3     1  UNL1        0.1544
     23 O          59.4317   91.5567   -0.4788 O.3     1  UNL1       -0.3805
     24 H          59.0512   90.6706   -0.5838 H       1  UNL1        0.2105
     25 S          62.1603   93.9886    0.8885 S.O2    1  UNL1        0.0632
     26 O          61.8365   92.7584    0.0936 O.2     1  UNL1       -0.1528
     27 O          62.4174   95.1289    1.8283 O.2     1  UNL1       -0.1528
     28 C          61.5977   93.1819    2.0210 C.ar    1  UNL1        0.1222
     29 C          60.1818   93.3993    2.4657 C.ar    1  UNL1        0.0208
     30 C          59.6191   92.5927    3.5983 C.ar    1  UNL1        0.0128
     31 C          60.4725   91.5686    4.2861 C.ar    1  UNL1        0.0578
     32 CL         59.6095   90.9593    5.3511 Cl      1  UNL1       -0.0822
     33 C          61.8884   91.3511    3.8414 C.ar    1  UNL1        0.0128
     34 C          62.4511   92.1578    2.7089 C.ar    1  UNL1        0.0208
     35 C          65.6763   94.2711    1.4979 C.3     1  UNL1        0.0015
     36 C          65.0759   93.7915    0.2097 C.3     1  UNL1        0.0177
@<TRIPOS>BOND
     1    35    36    1
     2     1    36    1
     3     1     2    1
     4     2     3    1
     5     3     4    1
     6     4     5    1
     7     5     7    1
     8     7    10    1
     9    10    11    1
    10    11    12    2
    11    11    13   am
    12    13    14    1
    13    14    15    1
    14    15    16    1
    15    16    17    1
    16    17    18    1
    17    18    19    1
    18    18    20    1
    19    20    21    1
    20    21    22    1
    21    22    23    1
    22     7     8    1
    23     8     9    1
    24     5     6    1
    25     6    25    1
    26    25    26    2
    27    25    27    2
    28    25    28    1
    29    28    29   ar
    30    29    30   ar
    31    30    31   ar
    32    31    32    1
    33    31    33   ar
    34    33    34   ar
    35     6     1    1
    36    34    28   ar
    37     9     7    1
    38    19    13    1
    39    20    15    1
    40    23    24    1
@<TRIPOS>MOLECULE
*****
 36 40 0 0 0
SMALL
GASTEIGER

@<TRIPOS>ATOM
      1 C          58.9076   95.5782   -4.9474 C.3     1  UNL1        0.0795
      2 C          60.3445   95.2694   -5.2472 C.3     1  UNL1        0.0178
      3 C          61.1273   94.3775   -4.3298 C.3     1  UNL1        0.0029
      4 C          60.4731   93.7943   -3.1124 C.3     1  UNL1        0.0178
      5 C          59.0361   94.1031   -2.8126 C.3     1  UNL1        0.0799
      6 N          58.2534   94.9950   -3.7300 N.3     1  UNL1       -0.1583
      7 C          58.3820   93.5199   -1.5952 C.3     1  UNL1        0.0237
      8 C          57.5938   92.4118   -2.2286 C.3     1  UNL1        0.0019
      9 C          57.5330   92.6222   -0.7446 C.3     1  UNL1        0.0019
     10 C          58.9429   94.4253   -0.5391 C.3     1  UNL1        0.0866
     11 C          59.6842   93.8457    0.6291 C.2     1  UNL1        0.2258
     12 O          59.2639   93.1334    1.8805 O.2     1  UNL1       -0.2749
     13 N          61.1809   93.9289    0.6836 N.am    1  UNL1       -0.2768
     14 C          61.9364   94.5915   -0.4300 C.3     1  UNL1        0.1093
     15 C          63.4331   94.6746   -0.3755 C.3     1  UNL1        0.0775
     16 C          64.8540   94.5320    0.0835 C.3     1  UNL1        0.0191
     17 C          64.8458   93.8149    1.4009 C.3     1  UNL1        0.0191
     18 C          63.4198   93.5142    1.7562 C.3     1  UNL1        0.0775
     19 C          61.9222   93.3493    1.8518 C.3     1  UNL1        0.1093
     20 N          62.5467   94.0455    0.6583 N.3     1  UNL1       -0.2699
     21 C          61.0500   93.9624    0.6037 C.3     1  UNL1        0.1043
     22 C          60.2244   94.5757    1.6958 C.3     1  UNL1        0.1544
     23 O          60.0055   95.8833    2.3972 O.3     1  UNL1       -0.3805
     24 H          60.6652   95.9873    3.1007 H       1  UNL1        0.2105
     25 S          56.8164   95.3037   -3.4302 S.O2    1  UNL1        0.0632
     26 O          56.2173   94.2010   -4.2519 O.2     1  UNL1       -0.1528
     27 O          57.2437   96.4525   -2.5656 O.2     1  UNL1       -0.1528
     28 C          55.3795   95.6124   -3.1304 C.ar    1  UNL1        0.1222
     29 C          54.4473   95.9956   -4.2413 C.ar    1  UNL1        0.0208
     30 C          53.0103   96.3043   -3.9416 C.ar    1  UNL1        0.0128
     31 C          52.5056   96.2298   -2.5310 C.ar    1  UNL1        0.0578
     32 CL         51.0516   96.5932   -2.5925 Cl      1  UNL1       -0.0822
     33 C          53.4378   95.8466   -1.4201 C.ar    1  UNL1        0.0128
     34 C          54.8748   95.5379   -1.7198 C.ar    1  UNL1        0.0208
     35 C          57.5898   95.9313   -7.1584 C.3     1  UNL1        0.0015
     36 C          58.1249   96.4701   -5.8648 C.3     1  UNL1        0.0177
@<TRIPOS>BOND
     1    35    36    1
     2     1    36    1
     3     1     2    1
     4     2     3    1
     5     3     4    1
     6     4     5    1
     7     5     7    1
     8     7    10    1
     9    10    11    1
    10    11    12    2
    11    11    13   am
    12    13    14    1
    13    14    15    1
    14    15    16    1
    15    16    17    1
    16    17    18    1
    17    18    19    1
    18    18    20    1
    19    20    21    1
    20    21    22    1
    21    22    23    1
    22     7     8    1
    23     8     9    1
    24     5     6    1
    25     6    25    1
    26    25    26    2
    27    25    27    2
    28    25    28    1
    29    28    29   ar
    30    29    30   ar
    31    30    31   ar
    32    31    32    1
    33    31    33   ar
    34    33    34   ar
    35     6     1    1
    36    34    28   ar
    37     9     7    1
    38    19    13    1
    39    20    15    1
    40    23    24    1
