@<TRIPOS>MOLECULE
*****
 34 39 0 0 0
SMALL
GASTEIGER

@<TRIPOS>ATOM
      1 N          60.5830   88.2512    8.9191 N.pl3   1  UNL1       -0.2932
      2 C          60.3385   86.7752    9.0259 C.3     1  UNL1        0.0925
      3 C          61.0059   85.9809   10.1092 C.3     1  UNL1        0.0259
      4 C          61.9179   86.6626   11.0856 C.3     1  UNL1        0.0256
      5 C          61.9177   85.2200   11.4967 C.2     1  UNL1       -0.0304
      6 C          62.8619   85.5392   12.6177 C.2     1  UNL1       -0.0219
      7 C          62.8620   86.9818   12.2067 C.3     1  UNL1        0.0303
      8 C          62.1624   88.1387   10.9788 C.3     1  UNL1        0.0259
      9 C          61.4950   88.9329    9.8955 C.3     1  UNL1        0.0925
     10 C          58.5806   90.6342    5.6691 C.ar    1  UNL1        0.0332
     11 C          60.0405   90.8306    5.9521 C.ar    1  UNL1        0.0055
     12 C          60.7080   90.0363    7.0354 C.ar    1  UNL1        0.0344
     13 C          59.9155   89.0456    7.8357 C.ar    1  UNL1        0.1317
     14 N          58.4556   88.8492    7.5527 N.ar    1  UNL1       -0.2291
     15 C          57.7881   89.6435    6.4694 C.ar    1  UNL1        0.1014
     16 O          56.4167   91.5203    4.5366 O.co2   1  UNL1       -0.5445
     17 C          57.9131   91.4285    4.5858 C.2     1  UNL1        0.0744
     18 O          58.7420   92.1311    3.5518 O.co2   1  UNL1       -0.5445
     19 C          63.5293   84.7450   13.7010 C.ar    1  UNL1        0.0495
     20 C          63.8479   83.2801   13.6515 C.ar    1  UNL1        0.1238
     21 N          64.5108   82.9059   14.9439 N.ar    1  UNL1       -0.0773
     22 O          64.6020   84.1395   15.7923 O.2     1  UNL1       -0.3578
     23 C          63.9954   85.2762   15.0241 C.ar    1  UNL1        0.1535
     24 C          63.5550   82.3522   12.5099 C.ar    1  UNL1        0.0420
     25 C          64.1626   82.6061   11.1621 C.ar    1  UNL1        0.0600
     26 CL         65.0631   83.7878   10.9560 Cl      1  UNL1       -0.0822
     27 C          63.8696   81.6782   10.0205 C.ar    1  UNL1        0.0115
     28 C          62.9690   80.4964   10.2267 C.ar    1  UNL1        0.0017
     29 C          62.3615   80.2426   11.5744 C.ar    1  UNL1        0.0115
     30 C          62.6544   81.1705   12.7160 C.ar    1  UNL1        0.0600
     31 CL         62.0468   80.9166   14.0637 Cl      1  UNL1       -0.0822
     32 C          63.8758   86.6950   15.4963 C.3     1  UNL1        0.0602
     33 C          64.1522   88.1564   15.3018 C.3     1  UNL1        0.0081
     34 C          63.3922   87.6909   16.5084 C.3     1  UNL1        0.0081
@<TRIPOS>UNITY_ATOM_ATTR
16 1
charge -1
@<TRIPOS>BOND
     1    16    17   ar
     2    17    18   ar
     3    17    10    1
     4    10    11   ar
     5    11    12   ar
     6    12    13   ar
     7    13     1    1
     8     1     2    1
     9     2     3    1
    10     3     4    1
    11     4     5    1
    12     5     6    2
    13     6    19    1
    14    19    20   ar
    15    20    24    1
    16    24    25   ar
    17    25    26    1
    18    25    27   ar
    19    27    28   ar
    20    28    29   ar
    21    29    30   ar
    22    30    31    1
    23    20    21   ar
    24    21    22   ar
    25    22    23   ar
    26    23    32    1
    27    32    33    1
    28    33    34    1
    29     6     7    1
    30     4     8    1
    31     8     9    1
    32    13    14   ar
    33    14    15   ar
    34    15    10   ar
    35     9     1    1
    36     7     4    1
    37    23    19   ar
    38    34    32    1
    39    30    24   ar
@<TRIPOS>MOLECULE
*****
 34 39 0 0 0
SMALL
GASTEIGER

@<TRIPOS>ATOM
      1 N          60.5891   88.2783    8.9013 N.pl3   1  UNL1       -0.2932
      2 C          61.4901   88.9603    9.8878 C.3     1  UNL1        0.0925
      3 C          62.1565   88.1639   10.9701 C.3     1  UNL1        0.0259
      4 C          61.9221   86.6854   11.0659 C.3     1  UNL1        0.0256
      5 C          62.8569   87.0042   12.1949 C.2     1  UNL1       -0.0304
      6 C          62.8647   85.5590   12.5966 C.2     1  UNL1       -0.0219
      7 C          61.9299   85.2402   11.4677 C.3     1  UNL1        0.0303
      8 C          61.0212   86.0034   10.0795 C.3     1  UNL1        0.0259
      9 C          60.3547   86.7999    8.9972 C.3     1  UNL1        0.0925
     10 C          58.5895   90.6676    5.6543 C.ar    1  UNL1        0.0332
     11 C          60.0465   90.8719    5.9467 C.ar    1  UNL1        0.0055
     12 C          60.7130   90.0754    7.0291 C.ar    1  UNL1        0.0344
     13 C          59.9226   89.0748    7.8190 C.ar    1  UNL1        0.1317
     14 N          58.4656   88.8705    7.5265 N.ar    1  UNL1       -0.2291
     15 C          57.7991   89.6669    6.4442 C.ar    1  UNL1        0.1014
     16 O          58.7492   92.1149    3.5026 O.co2   1  UNL1       -0.5445
     17 C          57.9229   91.4640    4.5720 C.2     1  UNL1        0.0744
     18 O          56.4301   91.6095    4.5590 O.co2   1  UNL1       -0.5445
     19 C          63.5312   84.7626   13.6789 C.ar    1  UNL1        0.0495
     20 C          63.8475   83.2973   13.6278 C.ar    1  UNL1        0.1238
     21 N          64.5102   82.9207   14.9197 N.ar    1  UNL1       -0.0773
     22 O          64.6035   84.1533   15.7693 O.2     1  UNL1       -0.3578
     23 C          63.9984   85.2917   15.0025 C.ar    1  UNL1        0.1535
     24 C          63.5528   82.3711   12.4853 C.ar    1  UNL1        0.0420
     25 C          62.6517   81.1896   12.6907 C.ar    1  UNL1        0.0600
     26 CL         62.0453   80.9344   14.0387 Cl      1  UNL1       -0.0822
     27 C          62.3570   80.2634   11.5482 C.ar    1  UNL1        0.0115
     28 C          62.9635   80.5186   10.2002 C.ar    1  UNL1        0.0017
     29 C          63.8646   81.7001    9.9948 C.ar    1  UNL1        0.0115
     30 C          64.1593   82.6263   11.1373 C.ar    1  UNL1        0.0600
     31 CL         65.0604   83.8077   10.9318 Cl      1  UNL1       -0.0822
     32 C          63.8812   86.7102   15.4761 C.3     1  UNL1        0.0602
     33 C          63.4017   87.7055   16.4906 C.3     1  UNL1        0.0081
     34 C          64.1576   88.1716   15.2818 C.3     1  UNL1        0.0081
@<TRIPOS>UNITY_ATOM_ATTR
16 1
charge -1
@<TRIPOS>BOND
     1    16    17   ar
     2    17    18   ar
     3    17    10    1
     4    10    11   ar
     5    11    12   ar
     6    12    13   ar
     7    13     1    1
     8     1     2    1
     9     2     3    1
    10     3     4    1
    11     4     5    1
    12     5     6    2
    13     6    19    1
    14    19    20   ar
    15    20    24    1
    16    24    25   ar
    17    25    26    1
    18    25    27   ar
    19    27    28   ar
    20    28    29   ar
    21    29    30   ar
    22    30    31    1
    23    20    21   ar
    24    21    22   ar
    25    22    23   ar
    26    23    32    1
    27    32    33    1
    28    33    34    1
    29     6     7    1
    30     4     8    1
    31     8     9    1
    32    13    14   ar
    33    14    15   ar
    34    15    10   ar
    35     9     1    1
    36     7     4    1
    37    23    19   ar
    38    34    32    1
    39    30    24   ar
@<TRIPOS>MOLECULE
*****
 34 39 0 0 0
SMALL
GASTEIGER

@<TRIPOS>ATOM
      1 N          60.4377   87.8391    8.9650 N.pl3   1  UNL1       -0.2932
      2 C          60.2715   88.1478   10.4234 C.3     1  UNL1        0.0925
      3 C          60.9037   87.2607   11.4545 C.3     1  UNL1        0.0259
      4 C          61.7020   86.0648   11.0273 C.3     1  UNL1        0.0256
      5 C          61.7552   86.0517   12.5263 C.2     1  UNL1       -0.0304
      6 C          62.5960   84.8101   12.4857 C.2     1  UNL1       -0.0219
      7 C          62.5427   84.8232   10.9867 C.3     1  UNL1        0.0303
      8 C          61.8681   85.7560    9.5689 C.3     1  UNL1        0.0259
      9 C          61.2360   86.6432    8.5377 C.3     1  UNL1        0.0925
     10 C          58.5412   90.5005    5.8713 C.ar    1  UNL1        0.0332
     11 C          59.9287   90.7910    6.3616 C.ar    1  UNL1        0.0055
     12 C          60.5609   89.9038    7.3928 C.ar    1  UNL1        0.0344
     13 C          59.8055   88.7262    7.9337 C.ar    1  UNL1        0.1317
     14 N          58.4180   88.4357    7.4435 N.ar    1  UNL1       -0.2291
     15 C          57.7858   89.3228    6.4123 C.ar    1  UNL1        0.1014
     16 O          58.7684   92.1223    3.8543 O.co2   1  UNL1       -0.5445
     17 C          57.9090   91.3876    4.8401 C.2     1  UNL1        0.0744
     18 O          56.4175   91.5400    4.7947 O.co2   1  UNL1       -0.5445
     19 C          63.2281   83.9230   13.5168 C.ar    1  UNL1        0.0495
     20 C          63.6636   84.3392   14.8904 C.ar    1  UNL1        0.1238
     21 N          64.2404   83.1373   15.5780 N.ar    1  UNL1       -0.0773
     22 O          64.1614   81.9782   14.6292 O.2     1  UNL1       -0.3578
     23 C          63.5357   82.4638   13.3553 C.ar    1  UNL1        0.1535
     24 C          63.5435   85.7157   15.4742 C.ar    1  UNL1        0.0420
     25 C          62.7739   85.9273   16.7443 C.ar    1  UNL1        0.0600
     26 CL         62.1245   84.7623   17.4306 Cl      1  UNL1       -0.0822
     27 C          62.6538   87.3039   17.3280 C.ar    1  UNL1        0.0115
     28 C          63.3032   88.4688   16.6416 C.ar    1  UNL1        0.0017
     29 C          64.0727   88.2572   15.3716 C.ar    1  UNL1        0.0115
     30 C          64.1929   86.8807   14.7878 C.ar    1  UNL1        0.0600
     31 CL         64.9624   86.6692   13.5178 Cl      1  UNL1       -0.0822
     32 C          63.2652   81.6355   12.1343 C.3     1  UNL1        0.0602
     33 C          62.7325   80.3813   11.5072 C.3     1  UNL1        0.0081
     34 C          63.3293   81.4551   10.6465 C.3     1  UNL1        0.0081
@<TRIPOS>UNITY_ATOM_ATTR
16 1
charge -1
@<TRIPOS>BOND
     1    16    17   ar
     2    17    18   ar
     3    17    10    1
     4    10    11   ar
     5    11    12   ar
     6    12    13   ar
     7    13     1    1
     8     1     2    1
     9     2     3    1
    10     3     4    1
    11     4     5    1
    12     5     6    2
    13     6    19    1
    14    19    20   ar
    15    20    24    1
    16    24    25   ar
    17    25    26    1
    18    25    27   ar
    19    27    28   ar
    20    28    29   ar
    21    29    30   ar
    22    30    31    1
    23    20    21   ar
    24    21    22   ar
    25    22    23   ar
    26    23    32    1
    27    32    33    1
    28    33    34    1
    29     6     7    1
    30     4     8    1
    31     8     9    1
    32    13    14   ar
    33    14    15   ar
    34    15    10   ar
    35     9     1    1
    36     7     4    1
    37    23    19   ar
    38    34    32    1
    39    30    24   ar
