@<TRIPOS>MOLECULE
*****
 27 31 0 0 0
SMALL
GASTEIGER

@<TRIPOS>ATOM
      1 C          62.8882   88.6829   12.2566 C.2     1  UNL1        0.0565
      2 C          63.2606   87.2301   12.2752 C.2     1  UNL1        0.0584
      3 C          62.4356   86.2345   11.5148 C.2     1  UNL1        0.1962
      4 N          61.2382   86.6917   10.7358 N.2     1  UNL1       -0.0378
      5 C          60.8657   88.1446   10.7170 C.2     1  UNL1        0.3605
      6 N          59.7487   88.8858   10.0440 N.2     1  UNL1       -0.0343
      7 C          59.8834   90.3395   10.3885 C.2     1  UNL1        0.2321
      8 C          61.0836   90.4967   11.2744 C.2     1  UNL1        0.0421
      9 C          61.6906   89.1402   11.4774 C.3     1  UNL1        0.1740
     10 O          63.5985   88.5537   15.4391 O.2     1  UNL1       -0.2497
     11 C          64.0396   89.6191   14.4798 C.2     1  UNL1        0.3346
     12 N          64.8847   90.8123   14.8148 N.am    1  UNL1       -0.1628
     13 C          65.0805   91.6091   13.5591 C.2     1  UNL1        0.0912
     14 C          65.8245   92.8821   13.2840 C.3     1  UNL1        0.1696
     15 N          65.8444   93.4544   11.8976 N.2     1  UNL1       -0.2626
     16 C          65.1204   92.7537   10.7864 C.2     1  UNL1        0.0949
     17 C          64.3763   91.4807   11.0616 C.2     1  UNL1        0.0365
     18 C          64.3564   90.9084   12.4479 C.2     1  UNL1        0.0741
     19 N          63.7131   89.6786   13.0169 N.am    1  UNL1       -0.2220
     20 C          62.8081   84.7816   11.5336 C.ar    1  UNL1        0.0713
     21 C          62.6101   83.9725   12.7810 C.ar    1  UNL1        0.0173
     22 C          62.9826   82.5196   12.7997 C.ar    1  UNL1        0.0579
     23 CL         62.7846   81.7106   14.0473 Cl      1  UNL1       -0.0822
     24 C          63.5532   81.8757   11.5709 C.ar    1  UNL1        0.0137
     25 C          63.7512   82.6848   10.3235 C.ar    1  UNL1        0.0306
     26 C          63.3787   84.1377   10.3048 C.ar    1  UNL1        0.1437
     27 F          63.5767   84.9467    9.0573 F       1  UNL1       -0.2040
@<TRIPOS>BOND
     1    10    11    2
     2    11    12    1
     3    12    13    2
     4    13    14    1
     5    14    15    1
     6    15    16    2
     7    16    17    1
     8    17    18    2
     9    18    19    1
    10    19     1    1
    11     1     2    2
    12     2     3    1
    13     3    20    1
    14    20    21   ar
    15    21    22   ar
    16    22    23    1
    17    22    24   ar
    18    24    25   ar
    19    25    26   ar
    20    26    27    1
    21     3     4    2
    22     4     5    1
    23     5     6    2
    24     6     7    1
    25     7     8    2
    26     8     9    1
    27    19    11   am
    28     9     1    1
    29    18    13    1
    30    26    20   ar
    31     9     5    1
@<TRIPOS>MOLECULE
*****
 27 31 0 0 0
SMALL
GASTEIGER

@<TRIPOS>ATOM
      1 C          64.3205   89.7700   14.0645 C.2     1  UNL1        0.0565
      2 C          64.3438   88.3401   14.5168 C.2     1  UNL1        0.0584
      3 C          63.7632   87.2675   13.6436 C.2     1  UNL1        0.1962
      4 N          63.1592   87.6250   12.3179 N.2     1  UNL1       -0.0378
      5 C          63.1358   89.0549   11.8655 C.2     1  UNL1        0.3605
      6 N          62.6119   89.7050   10.6193 N.2     1  UNL1       -0.0343
      7 C          62.8688   91.1792   10.7225 C.2     1  UNL1        0.2321
      8 C          63.5514   91.4403   12.0324 C.2     1  UNL1        0.0421
      9 C          63.7164   90.1274   12.7388 C.3     1  UNL1        0.1740
     10 O          62.9463   91.0072   16.7535 O.2     1  UNL1       -0.2497
     11 C          64.2694   91.4112   16.1738 C.2     1  UNL1        0.3346
     12 N          65.1933   92.4547   16.7282 N.am    1  UNL1       -0.1628
     13 C          66.3959   92.5311   15.8349 C.2     1  UNL1        0.0912
     14 C          67.6320   93.3791   15.8862 C.3     1  UNL1        0.1696
     15 N          68.6875   93.2308   14.8309 N.2     1  UNL1       -0.2626
     16 C          68.5069   92.2343   13.7243 C.2     1  UNL1        0.0949
     17 C          67.2708   91.3862   13.6731 C.2     1  UNL1        0.0365
     18 C          66.2153   91.5346   14.7284 C.2     1  UNL1        0.0741
     19 N          64.9011   90.8425   14.9378 N.am    1  UNL1       -0.2220
     20 C          63.7866   85.8376   14.0960 C.ar    1  UNL1        0.0713
     21 C          63.9319   84.7348   13.0897 C.ar    1  UNL1        0.0173
     22 C          63.9553   83.3049   13.5420 C.ar    1  UNL1        0.0579
     23 CL         64.1006   82.2020   12.5356 Cl      1  UNL1       -0.0822
     24 C          63.8333   82.9776   15.0008 C.ar    1  UNL1        0.0137
     25 C          63.6880   84.0804   16.0072 C.ar    1  UNL1        0.0306
     26 C          63.6646   85.5104   15.5548 C.ar    1  UNL1        0.1437
     27 F          63.5193   86.6131   16.5612 F       1  UNL1       -0.2040
@<TRIPOS>BOND
     1    10    11    2
     2    11    12    1
     3    12    13    2
     4    13    14    1
     5    14    15    1
     6    15    16    2
     7    16    17    1
     8    17    18    2
     9    18    19    1
    10    19     1    1
    11     1     2    2
    12     2     3    1
    13     3    20    1
    14    20    21   ar
    15    21    22   ar
    16    22    23    1
    17    22    24   ar
    18    24    25   ar
    19    25    26   ar
    20    26    27    1
    21     3     4    2
    22     4     5    1
    23     5     6    2
    24     6     7    1
    25     7     8    2
    26     8     9    1
    27    19    11   am
    28     9     1    1
    29    18    13    1
    30    26    20   ar
    31     9     5    1
@<TRIPOS>MOLECULE
*****
 27 31 0 0 0
SMALL
GASTEIGER

@<TRIPOS>ATOM
      1 C          63.1339   89.1431   12.5648 C.2     1  UNL1        0.0565
      2 C          63.5546   87.7232   12.8024 C.2     1  UNL1        0.0584
      3 C          62.7780   86.5976   12.1861 C.2     1  UNL1        0.1962
      4 N          61.5805   86.8919   11.3322 N.2     1  UNL1       -0.0378
      5 C          61.1596   88.3119   11.0945 C.2     1  UNL1        0.3605
      6 N          60.0310   88.9054   10.3046 N.2     1  UNL1       -0.0343
      7 C          60.1102   90.3979   10.4327 C.2     1  UNL1        0.2321
      8 C          61.2877   90.7267   11.3018 C.2     1  UNL1        0.0421
      9 C          61.9363   89.4375   11.7107 C.3     1  UNL1        0.1740
     10 O          63.6359   89.6057   15.7559 O.2     1  UNL1       -0.2497
     11 C          64.1413   90.4814   14.6478 C.2     1  UNL1        0.3346
     12 N          64.9662   91.7234   14.8120 N.am    1  UNL1       -0.1628
     13 C          65.2452   92.2784   13.4466 C.2     1  UNL1        0.0912
     14 C          66.0091   93.4862   12.9910 C.3     1  UNL1        0.1696
     15 N          66.1205   93.7950   11.5274 N.2     1  UNL1       -0.2626
     16 C          65.4681   92.8959   10.5194 C.2     1  UNL1        0.0949
     17 C          64.7042   91.6881   10.9750 C.2     1  UNL1        0.0365
     18 C          64.5928   91.3793   12.4386 C.2     1  UNL1        0.0741
     19 N          63.9105   90.2687   13.1810 N.am    1  UNL1       -0.2220
     20 C          63.1988   85.1776   12.4239 C.ar    1  UNL1        0.0713
     21 C          63.1767   84.1898   11.2953 C.ar    1  UNL1        0.0173
     22 C          63.5975   82.7698   11.5330 C.ar    1  UNL1        0.0579
     23 CL         63.5754   81.7820   10.4043 Cl      1  UNL1       -0.0822
     24 C          64.0405   82.3375   12.8994 C.ar    1  UNL1        0.0137
     25 C          64.0627   83.3253   14.0279 C.ar    1  UNL1        0.0306
     26 C          63.6418   84.7453   13.7902 C.ar    1  UNL1        0.1437
     27 F          63.6640   85.7331   14.9189 F       1  UNL1       -0.2040
@<TRIPOS>BOND
     1    10    11    2
     2    11    12    1
     3    12    13    2
     4    13    14    1
     5    14    15    1
     6    15    16    2
     7    16    17    1
     8    17    18    2
     9    18    19    1
    10    19     1    1
    11     1     2    2
    12     2     3    1
    13     3    20    1
    14    20    21   ar
    15    21    22   ar
    16    22    23    1
    17    22    24   ar
    18    24    25   ar
    19    25    26   ar
    20    26    27    1
    21     3     4    2
    22     4     5    1
    23     5     6    2
    24     6     7    1
    25     7     8    2
    26     8     9    1
    27    19    11   am
    28     9     1    1
    29    18    13    1
    30    26    20   ar
    31     9     5    1
@<TRIPOS>MOLECULE
*****
 27 31 0 0 0
SMALL
GASTEIGER

@<TRIPOS>ATOM
      1 C          62.4006   86.5424   11.0785 C.2     1  UNL1        0.0565
      2 C          63.0863   87.5258   11.9798 C.2     1  UNL1        0.0584
      3 C          62.7093   88.9768   11.9317 C.2     1  UNL1        0.1962
      4 N          61.6464   89.4445   10.9822 N.2     1  UNL1       -0.0378
      5 C          60.9605   88.4610   10.0808 C.2     1  UNL1        0.3605
      6 N          59.8837   88.6262    9.0497 N.2     1  UNL1       -0.0343
      7 C          59.5953   87.2772    8.4605 C.2     1  UNL1        0.2321
      8 C          60.4939   86.2784    9.1275 C.2     1  UNL1        0.0421
      9 C          61.3376   87.0100   10.1289 C.3     1  UNL1        0.1740
     10 O          63.3710   84.7277    8.5457 O.2     1  UNL1       -0.2497
     11 C          63.2237   84.2572    9.9624 C.2     1  UNL1        0.3346
     12 N          63.4965   82.8701   10.4636 N.am    1  UNL1       -0.1628
     13 C          63.2191   82.8468   11.9376 C.2     1  UNL1        0.0912
     14 C          63.3137   81.7530   12.9595 C.3     1  UNL1        0.1696
     15 N          62.9640   82.0319   14.3912 N.2     1  UNL1       -0.2626
     16 C          62.5197   83.4048   14.8010 C.2     1  UNL1        0.0949
     17 C          62.4251   84.4986   13.7790 C.2     1  UNL1        0.0365
     18 C          62.7748   84.2197   12.3473 C.2     1  UNL1        0.0741
     19 N          62.7776   85.0913   11.1265 N.am    1  UNL1       -0.2220
     20 C          63.3951   89.9602   12.8331 C.ar    1  UNL1        0.0713
     21 C          63.2455   89.8447   14.3211 C.ar    1  UNL1        0.0173
     22 C          63.9314   90.8282   15.2224 C.ar    1  UNL1        0.0579
     23 CL         63.7817   90.7126   16.7106 Cl      1  UNL1       -0.0822
     24 C          64.7669   91.9271   14.6358 C.ar    1  UNL1        0.0137
     25 C          64.9165   92.0426   13.1478 C.ar    1  UNL1        0.0306
     26 C          64.2307   91.0592   12.2464 C.ar    1  UNL1        0.1437
     27 F          64.3803   91.1748   10.7584 F       1  UNL1       -0.2040
@<TRIPOS>BOND
     1    10    11    2
     2    11    12    1
     3    12    13    2
     4    13    14    1
     5    14    15    1
     6    15    16    2
     7    16    17    1
     8    17    18    2
     9    18    19    1
    10    19     1    1
    11     1     2    2
    12     2     3    1
    13     3    20    1
    14    20    21   ar
    15    21    22   ar
    16    22    23    1
    17    22    24   ar
    18    24    25   ar
    19    25    26   ar
    20    26    27    1
    21     3     4    2
    22     4     5    1
    23     5     6    2
    24     6     7    1
    25     7     8    2
    26     8     9    1
    27    19    11   am
    28     9     1    1
    29    18    13    1
    30    26    20   ar
    31     9     5    1
@<TRIPOS>MOLECULE
*****
 27 31 0 0 0
SMALL
GASTEIGER

@<TRIPOS>ATOM
      1 C          62.5201   86.8285   11.4823 C.2     1  UNL1        0.0565
      2 C          63.3511   87.7992   12.2677 C.2     1  UNL1        0.0584
      3 C          63.0807   89.2712   12.1670 C.2     1  UNL1        0.1962
      4 N          61.9791   89.7725   11.2809 N.2     1  UNL1       -0.0378
      5 C          61.1480   88.8017   10.4955 C.2     1  UNL1        0.3605
      6 N          60.0032   88.9988    9.5465 N.2     1  UNL1       -0.0343
      7 C          59.5661   87.6486    9.0607 C.2     1  UNL1        0.2321
      8 C          60.4408   86.6171    9.7094 C.2     1  UNL1        0.0421
      9 C          61.4184   87.3298   10.5961 C.3     1  UNL1        0.1740
     10 O          63.2525   84.8387    9.0016 O.2     1  UNL1       -0.2497
     11 C          63.1272   84.4419   10.4428 C.2     1  UNL1        0.3346
     12 N          63.3165   83.0609   10.9967 N.am    1  UNL1       -0.1628
     13 C          63.0968   83.1219   12.4793 C.2     1  UNL1        0.0912
     14 C          63.1508   82.0689   13.5461 C.3     1  UNL1        0.1696
     15 N          62.8797   82.4347   14.9753 N.2     1  UNL1       -0.2626
     16 C          62.5547   83.8535   15.3377 C.2     1  UNL1        0.0949
     17 C          62.5007   84.9065   14.2709 C.2     1  UNL1        0.0365
     18 C          62.7718   84.5407   12.8417 C.2     1  UNL1        0.0741
     19 N          62.7905   85.3565   11.5830 N.am    1  UNL1       -0.2220
     20 C          63.9118   90.2419   12.9525 C.ar    1  UNL1        0.0713
     21 C          64.5368   91.4205   12.2668 C.ar    1  UNL1        0.0173
     22 C          65.3679   92.3912   13.0523 C.ar    1  UNL1        0.0579
     23 CL         65.9930   93.5700   12.3665 Cl      1  UNL1       -0.0822
     24 C          65.5741   92.1833   14.5234 C.ar    1  UNL1        0.0137
     25 C          64.9491   91.0047   15.2090 C.ar    1  UNL1        0.0306
     26 C          64.1180   90.0340   14.4236 C.ar    1  UNL1        0.1437
     27 F          63.4930   88.8553   15.1093 F       1  UNL1       -0.2040
@<TRIPOS>BOND
     1    10    11    2
     2    11    12    1
     3    12    13    2
     4    13    14    1
     5    14    15    1
     6    15    16    2
     7    16    17    1
     8    17    18    2
     9    18    19    1
    10    19     1    1
    11     1     2    2
    12     2     3    1
    13     3    20    1
    14    20    21   ar
    15    21    22   ar
    16    22    23    1
    17    22    24   ar
    18    24    25   ar
    19    25    26   ar
    20    26    27    1
    21     3     4    2
    22     4     5    1
    23     5     6    2
    24     6     7    1
    25     7     8    2
    26     8     9    1
    27    19    11   am
    28     9     1    1
    29    18    13    1
    30    26    20   ar
    31     9     5    1
@<TRIPOS>MOLECULE
*****
 27 31 0 0 0
SMALL
GASTEIGER

@<TRIPOS>ATOM
      1 C          63.9120   90.3800   12.5739 C.2     1  UNL1        0.0565
      2 C          64.6225   91.2277   11.5608 C.2     1  UNL1        0.0584
      3 C          65.3986   92.4328   12.0028 C.2     1  UNL1        0.1962
      4 N          65.4642   92.7903   13.4581 N.2     1  UNL1       -0.0378
      5 C          64.7537   91.9427   14.4713 C.2     1  UNL1        0.3605
      6 N          64.6393   92.0459   15.9634 N.2     1  UNL1       -0.0343
      7 C          63.7926   90.9046   16.4434 C.2     1  UNL1        0.2321
      8 C          63.3836   90.0960   15.2481 C.2     1  UNL1        0.0421
      9 C          63.9776   90.7376   14.0293 C.3     1  UNL1        0.1740
     10 O          64.1930   87.3651   13.7908 O.2     1  UNL1       -0.2497
     11 C          63.2651   87.7891   12.6912 C.2     1  UNL1        0.3346
     12 N          62.3034   86.9018   11.9579 N.am    1  UNL1       -0.1628
     13 C          61.5798   87.7392   10.9453 C.2     1  UNL1        0.0912
     14 C          60.5190   87.4040    9.9393 C.3     1  UNL1        0.1696
     15 N          59.9726   88.4736    9.0408 N.2     1  UNL1       -0.2626
     16 C          60.4872   89.8785    9.1483 C.2     1  UNL1        0.0949
     17 C          61.5480   90.2137   10.1544 C.2     1  UNL1        0.0365
     18 C          62.0944   89.1441   11.0529 C.2     1  UNL1        0.0741
     19 N          63.1359   89.1749   12.1319 N.am    1  UNL1       -0.2220
     20 C          66.1092   93.2804   10.9895 C.ar    1  UNL1        0.0713
     21 C          65.5816   94.6425   10.6487 C.ar    1  UNL1        0.0173
     22 C          66.2921   95.4901    9.6354 C.ar    1  UNL1        0.0579
     23 CL         65.7644   96.8523    9.2946 Cl      1  UNL1       -0.0822
     24 C          67.5303   94.9756    8.9630 C.ar    1  UNL1        0.0137
     25 C          68.0579   93.6135    9.3039 C.ar    1  UNL1        0.0306
     26 C          67.3474   92.7659   10.3171 C.ar    1  UNL1        0.1437
     27 F          67.8750   91.4038   10.6579 F       1  UNL1       -0.2040
@<TRIPOS>BOND
     1    10    11    2
     2    11    12    1
     3    12    13    2
     4    13    14    1
     5    14    15    1
     6    15    16    2
     7    16    17    1
     8    17    18    2
     9    18    19    1
    10    19     1    1
    11     1     2    2
    12     2     3    1
    13     3    20    1
    14    20    21   ar
    15    21    22   ar
    16    22    23    1
    17    22    24   ar
    18    24    25   ar
    19    25    26   ar
    20    26    27    1
    21     3     4    2
    22     4     5    1
    23     5     6    2
    24     6     7    1
    25     7     8    2
    26     8     9    1
    27    19    11   am
    28     9     1    1
    29    18    13    1
    30    26    20   ar
    31     9     5    1
@<TRIPOS>MOLECULE
*****
 27 31 0 0 0
SMALL
GASTEIGER

@<TRIPOS>ATOM
      1 C          65.6996   92.2238   11.7459 C.2     1  UNL1        0.0565
      2 C          64.6975   91.3028   11.1155 C.2     1  UNL1        0.0584
      3 C          63.7371   90.5370   11.9764 C.2     1  UNL1        0.1962
      4 N          63.7788   90.6922   13.4678 N.2     1  UNL1       -0.0378
      5 C          64.7810   91.6132   14.0982 C.2     1  UNL1        0.3605
      6 N          65.0574   91.9675   15.5293 N.2     1  UNL1       -0.0343
      7 C          66.1886   92.9523   15.5528 C.2     1  UNL1        0.2321
      8 C          66.6113   93.2066   14.1363 C.2     1  UNL1        0.0421
      9 C          65.7414   92.3790   13.2373 C.3     1  UNL1        0.1740
     10 O          68.7555   91.3358   11.0229 O.2     1  UNL1       -0.2497
     11 C          68.0647   92.5814   10.5527 C.2     1  UNL1        0.3346
     12 N          68.6571   93.6376    9.6675 N.am    1  UNL1       -0.1628
     13 C          67.6187   94.6985    9.4528 C.2     1  UNL1        0.0912
     14 C          67.6376   95.9775    8.6693 C.3     1  UNL1        0.1696
     15 N          66.4221   96.8559    8.6383 N.2     1  UNL1       -0.2626
     16 C          65.1878   96.4554    9.3907 C.2     1  UNL1        0.0949
     17 C          65.1690   95.1765   10.1741 C.2     1  UNL1        0.0365
     18 C          66.3844   94.2980   10.2052 C.2     1  UNL1        0.0741
     19 N          66.6601   92.9896   10.8849 N.am    1  UNL1       -0.2220
     20 C          62.7350   89.6160   11.3460 C.ar    1  UNL1        0.0713
     21 C          61.7825   90.1387   10.3119 C.ar    1  UNL1        0.0173
     22 C          60.7804   89.2177    9.6814 C.ar    1  UNL1        0.0579
     23 CL         59.8278   89.7405    8.6472 Cl      1  UNL1       -0.0822
     24 C          60.7307   87.7739   10.0851 C.ar    1  UNL1        0.0137
     25 C          61.6832   87.2512   11.1193 C.ar    1  UNL1        0.0306
     26 C          62.6853   88.1722   11.7497 C.ar    1  UNL1        0.1437
     27 F          63.6378   87.6494   12.7839 F       1  UNL1       -0.2040
@<TRIPOS>BOND
     1    10    11    2
     2    11    12    1
     3    12    13    2
     4    13    14    1
     5    14    15    1
     6    15    16    2
     7    16    17    1
     8    17    18    2
     9    18    19    1
    10    19     1    1
    11     1     2    2
    12     2     3    1
    13     3    20    1
    14    20    21   ar
    15    21    22   ar
    16    22    23    1
    17    22    24   ar
    18    24    25   ar
    19    25    26   ar
    20    26    27    1
    21     3     4    2
    22     4     5    1
    23     5     6    2
    24     6     7    1
    25     7     8    2
    26     8     9    1
    27    19    11   am
    28     9     1    1
    29    18    13    1
    30    26    20   ar
    31     9     5    1
@<TRIPOS>MOLECULE
*****
 27 31 0 0 0
SMALL
GASTEIGER

@<TRIPOS>ATOM
      1 C          62.6172   88.7746   11.8506 C.2     1  UNL1        0.0565
      2 C          63.0428   87.3594   12.1072 C.2     1  UNL1        0.0584
      3 C          62.4033   86.2345   11.3485 C.2     1  UNL1        0.1962
      4 N          61.3381   86.5248   10.3331 N.2     1  UNL1       -0.0378
      5 C          60.9125   87.9400   10.0764 C.2     1  UNL1        0.3605
      6 N          59.8962   88.5290    9.1434 N.2     1  UNL1       -0.0343
      7 C          59.9077   90.0178    9.3256 C.2     1  UNL1        0.2321
      8 C          60.9310   90.3491   10.3711 C.2     1  UNL1        0.0421
      9 C          61.5520   89.0649   10.8351 C.3     1  UNL1        0.1740
     10 O          64.1106   91.3651   10.5433 O.2     1  UNL1       -0.2497
     11 C          63.9432   91.0902   12.0084 C.2     1  UNL1        0.3346
     12 N          64.4327   91.9577   13.1299 N.am    1  UNL1       -0.1628
     13 C          64.0489   91.3032   14.4238 C.2     1  UNL1        0.0912
     14 C          64.2673   91.7012   15.8534 C.3     1  UNL1        0.1696
     15 N          63.7589   90.8271   16.9613 N.2     1  UNL1       -0.2626
     16 C          63.0321   89.5550   16.6395 C.2     1  UNL1        0.0949
     17 C          62.8137   89.1570   15.2099 C.2     1  UNL1        0.0365
     18 C          63.3221   90.0311   14.1021 C.2     1  UNL1        0.0741
     19 N          63.2567   89.8995   12.6093 N.am    1  UNL1       -0.2220
     20 C          62.8290   84.8192   11.6052 C.ar    1  UNL1        0.0713
     21 C          62.6209   84.2072   12.9587 C.ar    1  UNL1        0.0173
     22 C          63.0466   82.7920   13.2154 C.ar    1  UNL1        0.0579
     23 CL         62.8384   82.1799   14.5691 Cl      1  UNL1       -0.0822
     24 C          63.6804   81.9887   12.1185 C.ar    1  UNL1        0.0137
     25 C          63.8884   82.6008   10.7650 C.ar    1  UNL1        0.0306
     26 C          63.4628   84.0160   10.5083 C.ar    1  UNL1        0.1437
     27 F          63.6709   84.6280    9.1548 F       1  UNL1       -0.2040
@<TRIPOS>BOND
     1    10    11    2
     2    11    12    1
     3    12    13    2
     4    13    14    1
     5    14    15    1
     6    15    16    2
     7    16    17    1
     8    17    18    2
     9    18    19    1
    10    19     1    1
    11     1     2    2
    12     2     3    1
    13     3    20    1
    14    20    21   ar
    15    21    22   ar
    16    22    23    1
    17    22    24   ar
    18    24    25   ar
    19    25    26   ar
    20    26    27    1
    21     3     4    2
    22     4     5    1
    23     5     6    2
    24     6     7    1
    25     7     8    2
    26     8     9    1
    27    19    11   am
    28     9     1    1
    29    18    13    1
    30    26    20   ar
    31     9     5    1
@<TRIPOS>MOLECULE
*****
 27 31 0 0 0
SMALL
GASTEIGER

@<TRIPOS>ATOM
      1 C          63.1018   86.9537   12.6359 C.2     1  UNL1        0.0565
      2 C          63.8833   88.0886   13.2285 C.2     1  UNL1        0.0584
      3 C          63.6677   89.4876   12.7322 C.2     1  UNL1        0.1962
      4 N          62.6706   89.7517   11.6432 N.2     1  UNL1       -0.0378
      5 C          61.8891   88.6168   11.0505 C.2     1  UNL1        0.3605
      6 N          60.8458   88.5710    9.9737 N.2     1  UNL1       -0.0343
      7 C          60.4167   87.1436    9.8046 C.2     1  UNL1        0.2321
      8 C          61.1947   86.3073   10.7768 C.2     1  UNL1        0.0421
      9 C          62.1047   87.2178   11.5468 C.3     1  UNL1        0.1740
     10 O          63.0880   86.0024   15.7575 O.2     1  UNL1       -0.2497
     11 C          63.3111   85.1174   14.5671 C.2     1  UNL1        0.3346
     12 N          63.5670   83.6399   14.6024 N.am    1  UNL1       -0.1628
     13 C          63.7315   83.1639   13.1895 C.2     1  UNL1        0.0912
     14 C          64.0017   81.8058   12.6129 C.3     1  UNL1        0.1696
     15 N          64.1178   81.6312   11.1277 N.2     1  UNL1       -0.2626
     16 C          63.9636   82.8147   10.2190 C.2     1  UNL1        0.0949
     17 C          63.6933   84.1728   10.7956 C.2     1  UNL1        0.0365
     18 C          63.5772   84.3474   12.2808 C.2     1  UNL1        0.0741
     19 N          63.3174   85.5547   13.1323 N.am    1  UNL1       -0.2220
     20 C          64.4492   90.6224   13.3249 C.ar    1  UNL1        0.0713
     21 C          65.0098   91.6923   12.4354 C.ar    1  UNL1        0.0173
     22 C          65.7913   92.8271   13.0281 C.ar    1  UNL1        0.0579
     23 CL         66.3519   93.8970   12.1385 Cl      1  UNL1       -0.0822
     24 C          66.0123   92.8922   14.5103 C.ar    1  UNL1        0.0137
     25 C          65.4517   91.8223   15.3998 C.ar    1  UNL1        0.0306
     26 C          64.6702   90.6875   14.8071 C.ar    1  UNL1        0.1437
     27 F          64.1097   89.6177   15.6966 F       1  UNL1       -0.2040
@<TRIPOS>BOND
     1    10    11    2
     2    11    12    1
     3    12    13    2
     4    13    14    1
     5    14    15    1
     6    15    16    2
     7    16    17    1
     8    17    18    2
     9    18    19    1
    10    19     1    1
    11     1     2    2
    12     2     3    1
    13     3    20    1
    14    20    21   ar
    15    21    22   ar
    16    22    23    1
    17    22    24   ar
    18    24    25   ar
    19    25    26   ar
    20    26    27    1
    21     3     4    2
    22     4     5    1
    23     5     6    2
    24     6     7    1
    25     7     8    2
    26     8     9    1
    27    19    11   am
    28     9     1    1
    29    18    13    1
    30    26    20   ar
    31     9     5    1
