@<TRIPOS>MOLECULE
*****
 38 41 0 0 0
SMALL
GASTEIGER

@<TRIPOS>ATOM
      1 C          62.7105   89.5282   11.8487 C.ar    1  UNL1        0.1789
      2 O          62.3596   90.4592   10.7262 O.2     1  UNL1       -0.3536
      3 N          62.0280   89.6289    9.5218 N.ar    1  UNL1       -0.0811
      4 C          62.1741   88.1846    9.8999 C.ar    1  UNL1        0.1069
      5 C          62.5959   88.1224   11.3380 C.ar    1  UNL1        0.0886
      6 C          61.9395   87.0091    8.9982 C.3     1  UNL1        0.0879
      7 C          63.0971   86.1718    8.5411 C.3     1  UNL1        0.0773
      8 N          62.8625   84.9962    7.6395 N.3     1  UNL1       -0.2970
      9 C          61.4704   84.6580    7.1949 C.3     1  UNL1        0.0714
     10 C          60.3128   85.4953    7.6520 C.3     1  UNL1        0.0486
     11 C          60.5474   86.6709    8.5537 C.3     1  UNL1        0.1149
     12 O          59.0570   86.7505    8.4042 O.3     1  UNL1       -0.3822
     13 H          63.2239   84.1755    8.1256 H       1  UNL1        0.1233
     14 H          58.7507   86.0314    7.8299 H       1  UNL1        0.2107
     15 C          60.2644   87.8741    9.4035 C.ar    1  UNL1        0.0045
     16 C          60.3091   89.2463    8.7994 C.ar    1  UNL1        0.0004
     17 C          60.0261   90.4495    9.6492 C.ar    1  UNL1        0.0317
     18 C          59.6984   90.2805   11.1032 C.ar    1  UNL1        0.1674
     19 F          59.4154   91.4837   11.9530 F       1  UNL1       -0.2018
     20 C          59.6537   88.9082   11.7073 C.ar    1  UNL1        0.1671
     21 F          59.3261   88.7392   13.1613 F       1  UNL1       -0.2018
     22 C          59.9367   87.7051   10.8575 C.ar    1  UNL1        0.0299
     23 C          64.2153   90.9210   13.4442 C.ar    1  UNL1       -0.0174
     24 C          64.6114   91.3248   14.8335 C.ar    1  UNL1       -0.0041
     25 C          63.8987   90.7395   16.0165 C.ar    1  UNL1       -0.0003
     26 C          62.7901   89.7504   15.8103 C.ar    1  UNL1        0.0001
     27 C          62.3940   89.3467   14.4210 C.ar    1  UNL1        0.0028
     28 C          63.1066   89.9320   13.2380 C.ar    1  UNL1        0.0334
     29 C          64.9280   91.5063   12.2612 C.3     1  UNL1        0.0477
     30 C          66.0192   92.5148   12.4665 C.3     1  UNL1        0.0941
     31 C          66.1604   96.2323   11.0843 C.3     1  UNL1        0.0946
     32 C          66.4497   94.7698   11.2501 C.2     1  UNL1        0.2230
     33 O          67.4590   94.1000   10.3655 O.2     1  UNL1       -0.2751
     34 N          65.7298   93.9772   12.3006 N.am    1  UNL1       -0.3040
     35 H          65.0674   94.4169   12.8813 H       1  UNL1        0.1494
     36 C          62.8572   86.8737   12.1269 C.2     1  UNL1        0.1778
     37 C          62.1979   85.5855   11.7324 C.3     1  UNL1        0.0774
     38 O          63.6950   86.5577   13.3304 O.2     1  UNL1       -0.2912
@<TRIPOS>BOND
     1    31    32    1
     2    32    33    2
     3    32    34   am
     4    34    30    1
     5    30    29    1
     6    29    23    1
     7    23    24   ar
     8    24    25   ar
     9    25    26   ar
    10    26    27   ar
    11    27    28   ar
    12    28     1    1
    13     1     2   ar
    14     2     3   ar
    15     3     4   ar
    16     6     4    1
    17     6     7    1
    18     7     8    1
    19     8     9    1
    20     9    10    1
    21    10    11    1
    22    11    12    1
    23    11    15    1
    24    15    16   ar
    25    16    17   ar
    26    17    18   ar
    27    18    19    1
    28    18    20   ar
    29    20    21    1
    30    20    22   ar
    31     4     5   ar
    32     5    36    1
    33    36    37    1
    34    36    38    2
    35    28    23   ar
    36     5     1   ar
    37    11     6    1
    38    22    15   ar
    39    34    35    1
    40     8    13    1
    41    12    14    1
@<TRIPOS>MOLECULE
*****
 38 41 0 0 0
SMALL
GASTEIGER

@<TRIPOS>ATOM
      1 C          62.9411   88.5150   11.6812 C.ar    1  UNL1        0.1789
      2 O          62.8568   89.5844   10.6328 O.2     1  UNL1       -0.3536
      3 N          62.4562   88.9362    9.3407 N.ar    1  UNL1       -0.0811
      4 C          62.2929   87.4662    9.5907 C.ar    1  UNL1        0.1069
      5 C          62.5926   87.2059   11.0372 C.ar    1  UNL1        0.0886
      6 C          61.8991   86.4372    8.5728 C.3     1  UNL1        0.0879
      7 C          62.9253   85.4864    8.0317 C.3     1  UNL1        0.0773
      8 N          62.5315   84.4574    7.0138 N.3     1  UNL1       -0.2970
      9 C          61.1114   84.3792    6.5371 C.3     1  UNL1        0.0714
     10 C          60.0851   85.3300    7.0782 C.3     1  UNL1        0.0486
     11 C          60.4790   86.3590    8.0961 C.3     1  UNL1        0.1149
     12 O          59.0197   86.6764    7.9560 O.3     1  UNL1       -0.3822
     13 H          62.7588   83.5466    7.4128 H       1  UNL1        0.1233
     14 H          58.6182   86.0737    7.3107 H       1  UNL1        0.2107
     15 C          60.3660   87.4983    9.0653 C.ar    1  UNL1        0.0045
     16 C          60.5901   88.9057    8.5978 C.ar    1  UNL1        0.0004
     17 C          60.4772   90.0450    9.5671 C.ar    1  UNL1        0.0317
     18 C          60.1402   89.7766   11.0039 C.ar    1  UNL1        0.1674
     19 F          60.0272   90.9158   11.9731 F       1  UNL1       -0.2018
     20 C          59.9161   88.3690   11.4714 C.ar    1  UNL1        0.1671
     21 F          59.5791   88.1007   12.9082 F       1  UNL1       -0.2018
     22 C          60.0290   87.2299   10.5022 C.ar    1  UNL1        0.0299
     23 C          63.6234   90.0955   13.6271 C.ar    1  UNL1       -0.0174
     24 C          63.9916   90.2994   15.0669 C.ar    1  UNL1       -0.0041
     25 C          64.0457   89.1266   16.0005 C.ar    1  UNL1       -0.0003
     26 C          63.7316   87.7500   15.4943 C.ar    1  UNL1        0.0001
     27 C          63.3634   87.5461   14.0546 C.ar    1  UNL1        0.0028
     28 C          63.3093   88.7189   13.1210 C.ar    1  UNL1        0.0334
     29 C          63.5693   91.2683   12.6935 C.3     1  UNL1        0.0477
     30 C          64.7757   92.1417   12.5158 C.3     1  UNL1        0.0941
     31 C          66.7997   93.8231    9.5448 C.3     1  UNL1        0.0946
     32 C          66.2710   93.5455   10.9208 C.2     1  UNL1        0.2230
     33 O          66.7086   94.3939   12.0777 O.2     1  UNL1       -0.2751
     34 N          65.3045   92.4193   11.1398 N.am    1  UNL1       -0.3040
     35 H          65.0172   91.8625   10.3804 H       1  UNL1        0.1494
     36 C          62.5511   85.8709   11.7198 C.2     1  UNL1        0.1778
     37 C          63.4495   84.7630   11.2557 C.3     1  UNL1        0.0774
     38 O          61.7588   85.3092   12.8630 O.2     1  UNL1       -0.2912
@<TRIPOS>BOND
     1    31    32    1
     2    32    33    2
     3    32    34   am
     4    34    30    1
     5    30    29    1
     6    29    23    1
     7    23    24   ar
     8    24    25   ar
     9    25    26   ar
    10    26    27   ar
    11    27    28   ar
    12    28     1    1
    13     1     2   ar
    14     2     3   ar
    15     3     4   ar
    16     6     4    1
    17     6     7    1
    18     7     8    1
    19     8     9    1
    20     9    10    1
    21    10    11    1
    22    11    12    1
    23    11    15    1
    24    15    16   ar
    25    16    17   ar
    26    17    18   ar
    27    18    19    1
    28    18    20   ar
    29    20    21    1
    30    20    22   ar
    31     4     5   ar
    32     5    36    1
    33    36    37    1
    34    36    38    2
    35    28    23   ar
    36     5     1   ar
    37    11     6    1
    38    22    15   ar
    39    34    35    1
    40     8    13    1
    41    12    14    1
@<TRIPOS>MOLECULE
*****
 38 41 0 0 0
SMALL
GASTEIGER

@<TRIPOS>ATOM
      1 C          57.1194   94.0647   -4.3131 C.ar    1  UNL1        0.1789
      2 O          56.9543   92.7046   -3.7026 O.2     1  UNL1       -0.3536
      3 N          58.1887   92.4009   -2.9065 N.ar    1  UNL1       -0.0811
      4 C          59.1168   93.5734   -3.0248 C.ar    1  UNL1        0.1069
      5 C          58.4559   94.6017   -3.8942 C.ar    1  UNL1        0.0886
      6 C          60.4684   93.6960   -2.3860 C.3     1  UNL1        0.0879
      7 C          61.7073   93.5025   -3.2092 C.3     1  UNL1        0.0773
      8 N          63.0589   93.6251   -2.5704 N.3     1  UNL1       -0.2970
      9 C          63.1716   93.9412   -1.1084 C.3     1  UNL1        0.0714
     10 C          61.9327   94.1348   -0.2853 C.3     1  UNL1        0.0486
     11 C          60.5811   94.0121   -0.9241 C.3     1  UNL1        0.1149
     12 O          60.1755   94.3232    0.4861 O.3     1  UNL1       -0.3822
     13 H          63.5550   94.3629   -3.0703 H       1  UNL1        0.1233
     14 H          60.9684   94.4327    1.0340 H       1  UNL1        0.2107
     15 C          59.0886   93.9975   -1.0732 C.ar    1  UNL1        0.0045
     16 C          58.3368   92.7041   -0.9663 C.ar    1  UNL1        0.0004
     17 C          56.8442   92.6895   -1.1154 C.ar    1  UNL1        0.0317
     18 C          56.1036   93.9685   -1.3714 C.ar    1  UNL1        0.1674
     19 F          54.6111   93.9539   -1.5205 F       1  UNL1       -0.2018
     20 C          56.8554   95.2621   -1.4783 C.ar    1  UNL1        0.1671
     21 F          56.1148   96.5410   -1.7343 F       1  UNL1       -0.2018
     22 C          58.3479   95.2766   -1.3292 C.ar    1  UNL1        0.0299
     23 C          55.9055   94.2999   -6.5981 C.ar    1  UNL1       -0.0174
     24 C          54.9091   95.0002   -7.4737 C.ar    1  UNL1       -0.0041
     25 C          54.1301   96.1657   -6.9399 C.ar    1  UNL1       -0.0003
     26 C          54.3476   96.6309   -5.5306 C.ar    1  UNL1        0.0001
     27 C          55.3440   95.9306   -4.6550 C.ar    1  UNL1        0.0028
     28 C          56.1229   94.7651   -5.1888 C.ar    1  UNL1        0.0334
     29 C          56.6844   93.1344   -7.1318 C.3     1  UNL1        0.0477
     30 C          55.9726   91.8749   -7.5281 C.3     1  UNL1        0.0941
     31 C          53.3610   89.3857   -5.8747 C.3     1  UNL1        0.0946
     32 C          54.4963   89.9000   -6.7094 C.2     1  UNL1        0.2230
     33 O          55.2904   88.9536   -7.5601 O.2     1  UNL1       -0.2751
     34 N          54.8373   91.3606   -6.6934 N.am    1  UNL1       -0.3040
     35 H          54.3161   91.9818   -6.1350 H       1  UNL1        0.1494
     36 C          59.0306   95.9332   -4.2774 C.2     1  UNL1        0.1778
     37 C          58.5127   96.6536   -5.4868 C.3     1  UNL1        0.0774
     38 O          60.0988   96.8127   -3.6981 O.2     1  UNL1       -0.2912
@<TRIPOS>BOND
     1    31    32    1
     2    32    33    2
     3    32    34   am
     4    34    30    1
     5    30    29    1
     6    29    23    1
     7    23    24   ar
     8    24    25   ar
     9    25    26   ar
    10    26    27   ar
    11    27    28   ar
    12    28     1    1
    13     1     2   ar
    14     2     3   ar
    15     3     4   ar
    16     6     4    1
    17     6     7    1
    18     7     8    1
    19     8     9    1
    20     9    10    1
    21    10    11    1
    22    11    12    1
    23    11    15    1
    24    15    16   ar
    25    16    17   ar
    26    17    18   ar
    27    18    19    1
    28    18    20   ar
    29    20    21    1
    30    20    22   ar
    31     4     5   ar
    32     5    36    1
    33    36    37    1
    34    36    38    2
    35    28    23   ar
    36     5     1   ar
    37    11     6    1
    38    22    15   ar
    39    34    35    1
    40     8    13    1
    41    12    14    1
@<TRIPOS>MOLECULE
*****
 38 41 0 0 0
SMALL
GASTEIGER

@<TRIPOS>ATOM
      1 C          58.5244   95.6639   -1.3998 C.ar    1  UNL1        0.1789
      2 O          59.3279   95.9140   -0.1581 O.2     1  UNL1       -0.3536
      3 N          60.7760   95.9665   -0.5457 N.ar    1  UNL1       -0.0811
      4 C          60.8675   95.7488   -2.0271 C.ar    1  UNL1        0.1069
      5 C          59.4759   95.5618   -2.5549 C.ar    1  UNL1        0.0886
      6 C          62.1290   95.7228   -2.8381 C.3     1  UNL1        0.0879
      7 C          62.4053   96.8132   -3.8304 C.3     1  UNL1        0.0773
      8 N          63.6668   96.7872   -4.6415 N.3     1  UNL1       -0.2970
      9 C          64.6520   95.6707   -4.4603 C.3     1  UNL1        0.0714
     10 C          64.3758   94.5803   -3.4680 C.3     1  UNL1        0.0486
     11 C          63.1142   94.6063   -2.6569 C.3     1  UNL1        0.1149
     12 O          63.7363   93.3470   -2.1306 O.3     1  UNL1       -0.3822
     13 H          64.1643   97.6545   -4.4400 H       1  UNL1        0.1233
     14 H          64.5845   93.1948   -2.5758 H       1  UNL1        0.2107
     15 C          62.0687   94.1950   -1.6630 C.ar    1  UNL1        0.0045
     16 C          60.9311   93.3163   -2.0914 C.ar    1  UNL1        0.0004
     17 C          59.8856   92.9050   -1.0975 C.ar    1  UNL1        0.0317
     18 C          59.9777   93.3726    0.3249 C.ar    1  UNL1        0.1674
     19 F          58.9323   92.9613    1.3187 F       1  UNL1       -0.2018
     20 C          61.1154   94.2514    0.7532 C.ar    1  UNL1        0.1671
     21 F          61.2075   94.7190    2.1754 F       1  UNL1       -0.2018
     22 C          62.1608   94.6626   -0.2407 C.ar    1  UNL1        0.0299
     23 C          56.4059   94.2167   -1.8096 C.ar    1  UNL1       -0.0174
     24 C          54.9131   94.0908   -1.8833 C.ar    1  UNL1       -0.0041
     25 C          54.0457   95.2862   -1.6209 C.ar    1  UNL1       -0.0003
     26 C          54.6713   96.6074   -1.2847 C.ar    1  UNL1        0.0001
     27 C          56.1641   96.7333   -1.2110 C.ar    1  UNL1        0.0028
     28 C          57.0315   95.5379   -1.4735 C.ar    1  UNL1        0.0334
     29 C          57.2733   93.0214   -2.0720 C.3     1  UNL1        0.0477
     30 C          56.6846   91.7893   -2.6928 C.3     1  UNL1        0.0941
     31 C          57.2420   91.5629   -6.6156 C.3     1  UNL1        0.0946
     32 C          56.7539   92.0355   -5.2783 C.2     1  UNL1        0.2230
     33 O          55.8469   93.2269   -5.1892 O.2     1  UNL1       -0.2751
     34 N          57.1727   91.3167   -4.0301 N.am    1  UNL1       -0.3040
     35 H          57.7680   90.5348   -4.0886 H       1  UNL1        0.1494
     36 C          59.1016   95.3159   -3.9864 C.2     1  UNL1        0.1778
     37 C          58.2246   96.2936   -4.7109 C.3     1  UNL1        0.0774
     38 O          59.4146   94.2308   -4.9737 O.2     1  UNL1       -0.2912
@<TRIPOS>BOND
     1    31    32    1
     2    32    33    2
     3    32    34   am
     4    34    30    1
     5    30    29    1
     6    29    23    1
     7    23    24   ar
     8    24    25   ar
     9    25    26   ar
    10    26    27   ar
    11    27    28   ar
    12    28     1    1
    13     1     2   ar
    14     2     3   ar
    15     3     4   ar
    16     6     4    1
    17     6     7    1
    18     7     8    1
    19     8     9    1
    20     9    10    1
    21    10    11    1
    22    11    12    1
    23    11    15    1
    24    15    16   ar
    25    16    17   ar
    26    17    18   ar
    27    18    19    1
    28    18    20   ar
    29    20    21    1
    30    20    22   ar
    31     4     5   ar
    32     5    36    1
    33    36    37    1
    34    36    38    2
    35    28    23   ar
    36     5     1   ar
    37    11     6    1
    38    22    15   ar
    39    34    35    1
    40     8    13    1
    41    12    14    1
@<TRIPOS>MOLECULE
*****
 38 41 0 0 0
SMALL
GASTEIGER

@<TRIPOS>ATOM
      1 C          61.9059   85.5520   11.1239 C.ar    1  UNL1        0.1789
      2 O          61.1139   86.3393   12.1253 O.2     1  UNL1       -0.3536
      3 N          60.2748   87.3315   11.3759 N.ar    1  UNL1       -0.0811
      4 C          60.5483   87.1574    9.9113 C.ar    1  UNL1        0.1069
      5 C          61.5564   86.0576    9.7556 C.ar    1  UNL1        0.0886
      6 C          59.9234   87.9448    8.7980 C.3     1  UNL1        0.0879
      7 C          58.8932   87.3063    7.9142 C.3     1  UNL1        0.0773
      8 N          58.2683   88.0937    6.8009 N.3     1  UNL1       -0.2970
      9 C          58.6736   89.5196    6.5714 C.3     1  UNL1        0.0714
     10 C          59.7038   90.1581    7.4552 C.3     1  UNL1        0.0486
     11 C          60.3287   89.3707    8.5685 C.3     1  UNL1        0.1149
     12 O          61.0363   90.6811    8.7472 O.3     1  UNL1       -0.3822
     13 H          57.2626   88.0972    6.9712 H       1  UNL1        0.1233
     14 H          60.7259   91.3102    8.0773 H       1  UNL1        0.2107
     15 C          61.1993   89.0383    9.7439 C.ar    1  UNL1        0.0045
     16 C          62.4741   88.2745    9.5408 C.ar    1  UNL1        0.0004
     17 C          63.3448   87.9421   10.7163 C.ar    1  UNL1        0.0317
     18 C          62.9405   88.3737   12.0948 C.ar    1  UNL1        0.1674
     19 F          63.8111   88.0413   13.2702 F       1  UNL1       -0.2018
     20 C          61.6656   89.1376   12.2979 C.ar    1  UNL1        0.1671
     21 F          61.2614   89.5691   13.6764 F       1  UNL1       -0.2018
     22 C          60.7951   89.4699   11.1225 C.ar    1  UNL1        0.0299
     23 C          63.2068   84.1251   12.8622 C.ar    1  UNL1       -0.0174
     24 C          64.1779   83.0253   13.1742 C.ar    1  UNL1       -0.0041
     25 C          64.8193   82.2526   12.0599 C.ar    1  UNL1       -0.0003
     26 C          64.4895   82.5797   10.6337 C.ar    1  UNL1        0.0001
     27 C          63.5184   83.6795   10.3217 C.ar    1  UNL1        0.0028
     28 C          62.8771   84.4522   11.4359 C.ar    1  UNL1        0.0334
     29 C          62.5654   84.8978   13.9764 C.3     1  UNL1        0.0477
     30 C          63.2360   84.9791   15.3157 C.3     1  UNL1        0.0941
     31 C          63.0666   88.3502   17.4030 C.3     1  UNL1        0.0946
     32 C          62.6879   87.0151   16.8337 C.2     1  UNL1        0.2230
     33 O          61.3826   86.3810   17.2129 O.2     1  UNL1       -0.2751
     34 N          63.6147   86.3142   15.8851 N.am    1  UNL1       -0.3040
     35 H          64.4715   86.7303   15.6362 H       1  UNL1        0.1494
     36 C          62.1165   85.5522    8.4592 C.2     1  UNL1        0.1778
     37 C          61.2013   84.9717    7.4222 C.3     1  UNL1        0.0774
     38 O          63.4986   85.4733    7.8814 O.2     1  UNL1       -0.2912
@<TRIPOS>BOND
     1    31    32    1
     2    32    33    2
     3    32    34   am
     4    34    30    1
     5    30    29    1
     6    29    23    1
     7    23    24   ar
     8    24    25   ar
     9    25    26   ar
    10    26    27   ar
    11    27    28   ar
    12    28     1    1
    13     1     2   ar
    14     2     3   ar
    15     3     4   ar
    16     6     4    1
    17     6     7    1
    18     7     8    1
    19     8     9    1
    20     9    10    1
    21    10    11    1
    22    11    12    1
    23    11    15    1
    24    15    16   ar
    25    16    17   ar
    26    17    18   ar
    27    18    19    1
    28    18    20   ar
    29    20    21    1
    30    20    22   ar
    31     4     5   ar
    32     5    36    1
    33    36    37    1
    34    36    38    2
    35    28    23   ar
    36     5     1   ar
    37    11     6    1
    38    22    15   ar
    39    34    35    1
    40     8    13    1
    41    12    14    1
@<TRIPOS>MOLECULE
*****
 38 41 0 0 0
SMALL
GASTEIGER

@<TRIPOS>ATOM
      1 C          62.8620   88.4166   12.0292 C.ar    1  UNL1        0.1789
      2 O          63.0255   89.5037   11.0087 O.2     1  UNL1       -0.3536
      3 N          62.7179   88.9236    9.6601 N.ar    1  UNL1       -0.0811
      4 C          62.3641   87.4779    9.8471 C.ar    1  UNL1        0.1069
      5 C          62.4532   87.1646   11.3113 C.ar    1  UNL1        0.0886
      6 C          61.9875   86.5146    8.7607 C.3     1  UNL1        0.0879
      7 C          62.9866   85.5088    8.2706 C.3     1  UNL1        0.0773
      8 N          62.6099   84.5456    7.1842 N.3     1  UNL1       -0.2970
      9 C          61.2342   84.5882    6.5879 C.3     1  UNL1        0.0714
     10 C          60.2352   85.5940    7.0779 C.3     1  UNL1        0.0486
     11 C          60.6118   86.5572    8.1643 C.3     1  UNL1        0.1149
     12 O          59.1962   86.9861    7.9152 O.3     1  UNL1       -0.3822
     13 H          62.7369   83.6079    7.5651 H       1  UNL1        0.1233
     14 H          58.8100   86.4361    7.2157 H       1  UNL1        0.2107
     15 C          60.4968   87.6694    9.1643 C.ar    1  UNL1        0.0045
     16 C          60.9053   89.0624    8.7869 C.ar    1  UNL1        0.0004
     17 C          60.7904   90.1746    9.7869 C.ar    1  UNL1        0.0317
     18 C          60.2669   89.8937   11.1643 C.ar    1  UNL1        0.1674
     19 F          60.1519   91.0058   12.1642 F       1  UNL1       -0.2018
     20 C          59.8583   88.5005   11.5416 C.ar    1  UNL1        0.1671
     21 F          59.3349   88.2196   12.9189 F       1  UNL1       -0.2018
     22 C          59.9733   87.3884   10.5416 C.ar    1  UNL1        0.0299
     23 C          63.8537   87.5196   14.2567 C.ar    1  UNL1       -0.0174
     24 C          64.0622   87.6599   15.7355 C.ar    1  UNL1       -0.0041
     25 C          63.4876   88.8376   16.4655 C.ar    1  UNL1       -0.0003
     26 C          62.7044   89.8749   15.7168 C.ar    1  UNL1        0.0001
     27 C          62.4959   89.7345   14.2381 C.ar    1  UNL1        0.0028
     28 C          63.0705   88.5569   13.5080 C.ar    1  UNL1        0.0334
     29 C          64.4283   86.3420   13.5267 C.3     1  UNL1        0.0477
     30 C          64.8516   85.1210   14.2883 C.3     1  UNL1        0.0941
     31 C          63.8095   81.3693   13.5210 C.3     1  UNL1        0.0946
     32 C          63.8692   82.7186   14.1736 C.2     1  UNL1        0.2230
     33 O          63.0063   83.0146   15.3643 O.2     1  UNL1       -0.2751
     34 N          64.7919   83.7718   13.6356 N.am    1  UNL1       -0.3040
     35 H          65.3582   83.5775   12.8541 H       1  UNL1        0.1494
     36 C          62.1813   85.8331   11.9461 C.2     1  UNL1        0.1778
     37 C          62.5557   84.5698   11.2292 C.3     1  UNL1        0.0774
     38 O          61.5684   85.4043   13.2464 O.2     1  UNL1       -0.2912
@<TRIPOS>BOND
     1    31    32    1
     2    32    33    2
     3    32    34   am
     4    34    30    1
     5    30    29    1
     6    29    23    1
     7    23    24   ar
     8    24    25   ar
     9    25    26   ar
    10    26    27   ar
    11    27    28   ar
    12    28     1    1
    13     1     2   ar
    14     2     3   ar
    15     3     4   ar
    16     6     4    1
    17     6     7    1
    18     7     8    1
    19     8     9    1
    20     9    10    1
    21    10    11    1
    22    11    12    1
    23    11    15    1
    24    15    16   ar
    25    16    17   ar
    26    17    18   ar
    27    18    19    1
    28    18    20   ar
    29    20    21    1
    30    20    22   ar
    31     4     5   ar
    32     5    36    1
    33    36    37    1
    34    36    38    2
    35    28    23   ar
    36     5     1   ar
    37    11     6    1
    38    22    15   ar
    39    34    35    1
    40     8    13    1
    41    12    14    1
@<TRIPOS>MOLECULE
*****
 38 41 0 0 0
SMALL
GASTEIGER

@<TRIPOS>ATOM
      1 C          60.7915   95.1800   -2.4403 C.ar    1  UNL1        0.1789
      2 O          59.7810   95.3997   -1.3538 O.2     1  UNL1       -0.3536
      3 N          60.5198   95.5497   -0.0571 N.ar    1  UNL1       -0.0811
      4 C          61.9870   95.4227   -0.3421 C.ar    1  UNL1        0.1069
      5 C          62.1549   95.1942   -1.8150 C.ar    1  UNL1        0.0886
      6 C          63.0922   95.5090    0.6684 C.3     1  UNL1        0.0879
      7 C          63.8954   96.7695    0.7955 C.3     1  UNL1        0.0773
      8 N          65.0006   96.8558    1.8060 N.3     1  UNL1       -0.2970
      9 C          65.3025   95.6817    2.6894 C.3     1  UNL1        0.0714
     10 C          64.4993   94.4213    2.5624 C.3     1  UNL1        0.0486
     11 C          63.3941   94.3350    1.5519 C.3     1  UNL1        0.1149
     12 O          63.3010   92.9658    2.1573 O.3     1  UNL1       -0.3822
     13 H          64.7763   97.6375    2.4216 H       1  UNL1        0.1233
     14 H          63.9751   92.8713    2.8484 H       1  UNL1        0.2107
     15 C          62.2565   93.7731    0.7516 C.ar    1  UNL1        0.0045
     16 C          62.5295   93.0448   -0.5309 C.ar    1  UNL1        0.0004
     17 C          61.3919   92.4830   -1.3311 C.ar    1  UNL1        0.0317
     18 C          59.9813   92.6496   -0.8488 C.ar    1  UNL1        0.1674
     19 F          58.8439   92.0878   -1.6490 F       1  UNL1       -0.2018
     20 C          59.7084   93.3780    0.4338 C.ar    1  UNL1        0.1671
     21 F          58.2979   93.5445    0.9161 F       1  UNL1       -0.2018
     22 C          60.8460   93.9397    1.2340 C.ar    1  UNL1        0.0299
     23 C          59.0725   94.8165   -4.3542 C.ar    1  UNL1       -0.0174
     24 C          58.7725   94.6175   -5.8103 C.ar    1  UNL1       -0.0041
     25 C          59.8914   94.5830   -6.8088 C.ar    1  UNL1       -0.0003
     26 C          61.3103   94.7475   -6.3511 C.ar    1  UNL1        0.0001
     27 C          61.6104   94.9465   -4.8949 C.ar    1  UNL1        0.0028
     28 C          60.4915   94.9810   -3.8965 C.ar    1  UNL1        0.0334
     29 C          57.9536   94.8510   -3.3558 C.3     1  UNL1        0.0477
     30 C          56.5903   94.3571   -3.7397 C.3     1  UNL1        0.0941
     31 C          55.7156   90.5412   -3.0887 C.3     1  UNL1        0.0946
     32 C          55.9430   92.0042   -2.8481 C.2     1  UNL1        0.2230
     33 O          55.7506   92.5774   -1.4754 O.2     1  UNL1       -0.2751
     34 N          56.3629   92.8941   -3.9804 N.am    1  UNL1       -0.3040
     35 H          56.4892   92.5180   -4.8813 H       1  UNL1        0.1494
     36 C          63.4576   95.0120   -2.5360 C.2     1  UNL1        0.1778
     37 C          64.3271   96.1994   -2.8255 C.3     1  UNL1        0.0774
     38 O          64.1813   93.8233   -3.0960 O.2     1  UNL1       -0.2912
@<TRIPOS>BOND
     1    31    32    1
     2    32    33    2
     3    32    34   am
     4    34    30    1
     5    30    29    1
     6    29    23    1
     7    23    24   ar
     8    24    25   ar
     9    25    26   ar
    10    26    27   ar
    11    27    28   ar
    12    28     1    1
    13     1     2   ar
    14     2     3   ar
    15     3     4   ar
    16     6     4    1
    17     6     7    1
    18     7     8    1
    19     8     9    1
    20     9    10    1
    21    10    11    1
    22    11    12    1
    23    11    15    1
    24    15    16   ar
    25    16    17   ar
    26    17    18   ar
    27    18    19    1
    28    18    20   ar
    29    20    21    1
    30    20    22   ar
    31     4     5   ar
    32     5    36    1
    33    36    37    1
    34    36    38    2
    35    28    23   ar
    36     5     1   ar
    37    11     6    1
    38    22    15   ar
    39    34    35    1
    40     8    13    1
    41    12    14    1
