@<TRIPOS>MOLECULE
*****
 35 38 0 0 0
SMALL
GASTEIGER

@<TRIPOS>ATOM
      1 C          65.8808   91.6143   15.7273 C.3     1  UNL1        0.0518
      2 C          65.3418   91.6678   14.3285 C.ar    1  UNL1        0.0568
      3 N          64.2117   90.7677   13.9253 N.ar    1  UNL1       -0.2456
      4 C          63.6727   90.8211   12.5265 C.ar    1  UNL1        0.1319
      5 C          64.2638   91.7747   11.5309 C.ar    1  UNL1        0.0196
      6 C          65.3939   92.6749   11.9341 C.ar    1  UNL1       -0.0015
      7 C          65.9329   92.6214   13.3329 C.ar    1  UNL1        0.0068
      8 C          63.5300   91.6045   10.2338 C.3     1  UNL1        0.1226
      9 N          62.4854   90.5457   10.4278 N.am    1  UNL1       -0.2623
     10 C          62.5736   90.0615   11.8447 C.2     1  UNL1        0.2671
     11 O          61.7136   89.0035   12.4701 O.2     1  UNL1       -0.2682
     12 C          65.9851   93.6286   10.9385 C.ar    1  UNL1        0.0102
     13 C          65.4005   95.0003   10.7755 C.ar    1  UNL1        0.0017
     14 C          65.9916   95.9540    9.7799 C.ar    1  UNL1        0.0114
     15 C          67.1672   95.5359    8.9475 C.ar    1  UNL1        0.0585
     16 CL         67.7583   96.4896    7.9520 Cl      1  UNL1       -0.0822
     17 C          67.7518   94.1642    9.1105 C.ar    1  UNL1        0.0228
     18 C          67.1607   93.2105   10.1061 C.ar    1  UNL1        0.0585
     19 CL         67.7453   91.8387   10.2691 Cl      1  UNL1       -0.0822
     20 C          67.0631   93.5216   13.7361 C.3     1  UNL1        0.0934
     21 N          68.3703   92.9328   14.1771 N.3     1  UNL1       -0.3174
     22 H          68.2366   92.4246   15.0513 H       1  UNL1        0.1192
     23 H          69.0494   93.6805   14.3188 H       1  UNL1        0.1192
     24 C          61.5217   90.0568    9.3874 C.3     1  UNL1        0.1796
     25 C          61.1560   88.6033    9.3278 C.2     1  UNL1        0.2430
     26 O          59.7653   88.1951    8.9415 O.2     1  UNL1       -0.2732
     27 N          62.1810   87.5580    9.6544 N.am    1  UNL1       -0.2990
     28 H          63.0938   87.8258    9.9079 H       1  UNL1        0.1498
     29 C          61.8152   86.1045    9.5948 C.3     1  UNL1        0.1179
     30 C          62.6104   85.0985   10.3731 C.ar    1  UNL1        0.0166
     31 C          63.4605   84.0945    9.6524 C.ar    1  UNL1        0.0005
     32 C          64.2556   83.0886   10.4308 C.ar    1  UNL1        0.0204
     33 C          64.2006   83.0866   11.9298 C.ar    1  UNL1        0.0989
     34 N          63.3505   84.0906   12.6505 N.ar    1  UNL1       -0.2426
     35 C          62.5554   85.0965   11.8721 C.ar    1  UNL1        0.0962
@<TRIPOS>BOND
     1     1     2    1
     2     2     3   ar
     3     3     4   ar
     4     4     5   ar
     5     5     6   ar
     6     6    12    1
     7    12    13   ar
     8    13    14   ar
     9    14    15   ar
    10    15    16    1
    11    15    17   ar
    12    17    18   ar
    13    18    19    1
    14     6     7   ar
    15     7    20    1
    16    20    21    1
    17     5     8    1
    18     8     9    1
    19     9    24    1
    20    24    25    1
    21    25    26    2
    22    25    27   am
    23    27    29    1
    24    29    30    1
    25    30    31   ar
    26    31    32   ar
    27    32    33   ar
    28    33    34   ar
    29    34    35   ar
    30     9    10   am
    31    10    11    2
    32     7     2   ar
    33    35    30   ar
    34    10     4    1
    35    18    12   ar
    36    21    22    1
    37    21    23    1
    38    27    28    1
@<TRIPOS>MOLECULE
*****
 35 38 0 0 0
SMALL
GASTEIGER

@<TRIPOS>ATOM
      1 C          66.7781   93.3733   13.2305 C.3     1  UNL1        0.0518
      2 C          65.7133   92.3463   12.9821 C.ar    1  UNL1        0.0568
      3 N          64.9657   92.3406   11.6817 N.ar    1  UNL1       -0.2456
      4 C          63.9010   91.3137   11.4332 C.ar    1  UNL1        0.1319
      5 C          63.5838   90.2925   12.4852 C.ar    1  UNL1        0.0196
      6 C          64.3313   90.2982   13.7856 C.ar    1  UNL1       -0.0015
      7 C          65.3961   91.3252   14.0340 C.ar    1  UNL1        0.0068
      8 C          62.4906   89.4099   11.9598 C.3     1  UNL1        0.1226
      9 N          62.1322   89.8856   10.5832 N.am    1  UNL1       -0.2623
     10 C          63.0038   91.0622   10.2577 C.2     1  UNL1        0.2671
     11 O          62.9821   91.8491    8.9809 O.2     1  UNL1       -0.2682
     12 C          64.0142   89.2771   14.8377 C.ar    1  UNL1        0.0102
     13 C          64.3562   87.8345   14.6098 C.ar    1  UNL1        0.0017
     14 C          64.0391   86.8133   15.6618 C.ar    1  UNL1        0.0114
     15 C          63.3800   87.2348   16.9415 C.ar    1  UNL1        0.0585
     16 CL         63.0629   86.2136   17.9935 Cl      1  UNL1       -0.0822
     17 C          63.0379   88.6774   17.1694 C.ar    1  UNL1        0.0228
     18 C          63.3550   89.6986   16.1174 C.ar    1  UNL1        0.0585
     19 CL         63.0129   91.1412   16.3452 Cl      1  UNL1       -0.0822
     20 C          66.1437   91.3310   15.3345 C.3     1  UNL1        0.0934
     21 N          66.1214   92.5509   16.2071 N.3     1  UNL1       -0.3174
     22 H          66.5988   93.3172   15.7324 H       1  UNL1        0.1192
     23 H          66.5955   92.3481   17.0871 H       1  UNL1        0.1192
     24 C          61.0859   89.2894    9.6889 C.3     1  UNL1        0.1796
     25 C          61.0624   87.8096    9.4449 C.2     1  UNL1        0.2430
     26 O          59.7583   87.1108    9.1980 O.2     1  UNL1       -0.2732
     27 N          62.3430   87.0285    9.4479 N.am    1  UNL1       -0.2990
     28 H          63.1989   87.4871    9.6100 H       1  UNL1        0.1498
     29 C          62.3194   85.5487    9.2039 C.3     1  UNL1        0.1179
     30 C          62.9613   84.6161   10.1879 C.ar    1  UNL1        0.0166
     31 C          62.6389   84.7288   11.6485 C.ar    1  UNL1        0.0005
     32 C          63.2808   83.7962   12.6324 C.ar    1  UNL1        0.0204
     33 C          64.2453   82.7508   12.1558 C.ar    1  UNL1        0.0989
     34 N          64.5678   82.6381   10.6952 N.ar    1  UNL1       -0.2426
     35 C          63.9258   83.5707    9.7113 C.ar    1  UNL1        0.0962
@<TRIPOS>BOND
     1     1     2    1
     2     2     3   ar
     3     3     4   ar
     4     4     5   ar
     5     5     6   ar
     6     6    12    1
     7    12    13   ar
     8    13    14   ar
     9    14    15   ar
    10    15    16    1
    11    15    17   ar
    12    17    18   ar
    13    18    19    1
    14     6     7   ar
    15     7    20    1
    16    20    21    1
    17     5     8    1
    18     8     9    1
    19     9    24    1
    20    24    25    1
    21    25    26    2
    22    25    27   am
    23    27    29    1
    24    29    30    1
    25    30    31   ar
    26    31    32   ar
    27    32    33   ar
    28    33    34   ar
    29    34    35   ar
    30     9    10   am
    31    10    11    2
    32     7     2   ar
    33    35    30   ar
    34    10     4    1
    35    18    12   ar
    36    21    22    1
    37    21    23    1
    38    27    28    1
@<TRIPOS>MOLECULE
*****
 35 38 0 0 0
SMALL
GASTEIGER

@<TRIPOS>ATOM
      1 C          63.7618   83.7773   15.0708 C.3     1  UNL1        0.0518
      2 C          63.5702   84.9628   14.1719 C.ar    1  UNL1        0.0568
      3 N          63.8380   86.3458   14.6873 N.ar    1  UNL1       -0.2456
      4 C          63.6465   87.5313   13.7885 C.ar    1  UNL1        0.1319
      5 C          63.1871   87.3338   12.3743 C.ar    1  UNL1        0.0196
      6 C          62.9192   85.9508   11.8589 C.ar    1  UNL1       -0.0015
      7 C          63.1108   84.7653   12.7578 C.ar    1  UNL1        0.0068
      8 C          63.0870   88.6831   11.7267 C.3     1  UNL1        0.1226
      9 N          63.4845   89.7145   12.7407 N.am    1  UNL1       -0.2623
     10 C          63.8303   89.0026   14.0150 C.2     1  UNL1        0.2671
     11 O          64.2808   89.6487   15.2915 O.2     1  UNL1       -0.2682
     12 C          62.4598   85.7533   10.4447 C.ar    1  UNL1        0.0102
     13 C          63.3231   85.0040    9.4735 C.ar    1  UNL1        0.0017
     14 C          62.8638   84.8064    8.0592 C.ar    1  UNL1        0.0114
     15 C          61.5412   85.3581    7.6163 C.ar    1  UNL1        0.0585
     16 CL         61.0819   85.1605    6.2021 Cl      1  UNL1       -0.0822
     17 C          60.6779   86.1074    8.5875 C.ar    1  UNL1        0.0228
     18 C          61.1372   86.3050   10.0018 C.ar    1  UNL1        0.0585
     19 CL         60.2739   87.0543   10.9730 Cl      1  UNL1       -0.0822
     20 C          62.8430   83.3823   12.2424 C.3     1  UNL1        0.0934
     21 N          63.9498   82.5887   11.6138 N.3     1  UNL1       -0.3174
     22 H          64.2420   83.0402   10.7471 H       1  UNL1        0.1192
     23 H          63.6190   81.6454   11.4109 H       1  UNL1        0.1192
     24 C          63.5286   91.1974   12.5193 C.3     1  UNL1        0.1796
     25 C          64.8475   91.9105   12.4764 C.2     1  UNL1        0.2430
     26 O          65.5720   92.2248   13.7517 O.2     1  UNL1       -0.2732
     27 N          65.4422   92.3092   11.1583 N.am    1  UNL1       -0.2990
     28 H          64.9667   92.1029   10.3212 H       1  UNL1        0.1498
     29 C          66.7611   93.0222   11.1155 C.3     1  UNL1        0.1179
     30 C          66.9051   94.2857   10.3199 C.ar    1  UNL1        0.0166
     31 C          66.4402   95.5909   10.8945 C.ar    1  UNL1        0.0005
     32 C          66.5842   96.8544   10.0989 C.ar    1  UNL1        0.0204
     33 C          67.1931   96.8126    8.7286 C.ar    1  UNL1        0.0989
     34 N          67.6580   95.5073    8.1540 N.ar    1  UNL1       -0.2426
     35 C          67.5140   94.2439    8.9497 C.ar    1  UNL1        0.0962
@<TRIPOS>BOND
     1     1     2    1
     2     2     3   ar
     3     3     4   ar
     4     4     5   ar
     5     5     6   ar
     6     6    12    1
     7    12    13   ar
     8    13    14   ar
     9    14    15   ar
    10    15    16    1
    11    15    17   ar
    12    17    18   ar
    13    18    19    1
    14     6     7   ar
    15     7    20    1
    16    20    21    1
    17     5     8    1
    18     8     9    1
    19     9    24    1
    20    24    25    1
    21    25    26    2
    22    25    27   am
    23    27    29    1
    24    29    30    1
    25    30    31   ar
    26    31    32   ar
    27    32    33   ar
    28    33    34   ar
    29    34    35   ar
    30     9    10   am
    31    10    11    2
    32     7     2   ar
    33    35    30   ar
    34    10     4    1
    35    18    12   ar
    36    21    22    1
    37    21    23    1
    38    27    28    1
@<TRIPOS>MOLECULE
*****
 35 38 0 0 0
SMALL
GASTEIGER

@<TRIPOS>ATOM
      1 C          63.4609   80.8042   11.2771 C.3     1  UNL1        0.0518
      2 C          63.1949   82.2672   11.4743 C.ar    1  UNL1        0.0568
      3 N          62.9566   83.1528   10.2873 N.ar    1  UNL1       -0.2456
      4 C          62.6907   84.6158   10.4845 C.ar    1  UNL1        0.1319
      5 C          62.6630   85.1932   11.8686 C.ar    1  UNL1        0.0196
      6 C          62.9013   84.3077   13.0556 C.ar    1  UNL1       -0.0015
      7 C          63.1673   82.8446   12.8584 C.ar    1  UNL1        0.0068
      8 C          62.3775   86.6613   11.7528 C.3     1  UNL1        0.1226
      9 N          62.2288   86.9911   10.2971 N.am    1  UNL1       -0.2623
     10 C          62.4223   85.7270    9.5132 C.2     1  UNL1        0.2671
     11 O          62.3586   85.5969    8.0202 O.2     1  UNL1       -0.2682
     12 C          62.8737   84.8851   14.4398 C.ar    1  UNL1        0.0102
     13 C          61.5797   84.9621   15.1945 C.ar    1  UNL1        0.0017
     14 C          61.5519   85.5395   16.5786 C.ar    1  UNL1        0.0114
     15 C          62.8182   86.0397   17.2080 C.ar    1  UNL1        0.0585
     16 CL         62.7905   86.6171   18.5922 Cl      1  UNL1       -0.0822
     17 C          64.1122   85.9627   16.4533 C.ar    1  UNL1        0.0228
     18 C          64.1400   85.3853   15.0692 C.ar    1  UNL1        0.0585
     19 CL         65.4340   85.3082   14.3145 Cl      1  UNL1       -0.0822
     20 C          63.4056   81.9590   14.0454 C.3     1  UNL1        0.0934
     21 N          62.2537   81.2552   14.6994 N.3     1  UNL1       -0.3174
     22 H          61.6306   81.9433   15.1222 H       1  UNL1        0.1192
     23 H          62.6051   80.6260   15.4212 H       1  UNL1        0.1192
     24 C          61.9376   88.3471    9.7256 C.3     1  UNL1        0.1796
     25 C          62.0178   89.5628   10.6006 C.2     1  UNL1        0.2430
     26 O          60.7898   90.3855   10.8557 O.2     1  UNL1       -0.2732
     27 N          63.3260   89.9558   11.2206 N.am    1  UNL1       -0.2990
     28 H          64.1320   89.4158   11.0532 H       1  UNL1        0.1498
     29 C          63.4061   91.1715   12.0956 C.3     1  UNL1        0.1179
     30 C          64.7128   91.5605   12.7211 C.ar    1  UNL1        0.0166
     31 C          65.1150   90.9761   14.0427 C.ar    1  UNL1        0.0005
     32 C          66.4217   91.3651   14.6682 C.ar    1  UNL1        0.0204
     33 C          67.3262   92.3385   13.9720 C.ar    1  UNL1        0.0989
     34 N          66.9239   92.9229   12.6504 N.ar    1  UNL1       -0.2426
     35 C          65.6172   92.5338   12.0249 C.ar    1  UNL1        0.0962
@<TRIPOS>BOND
     1     1     2    1
     2     2     3   ar
     3     3     4   ar
     4     4     5   ar
     5     5     6   ar
     6     6    12    1
     7    12    13   ar
     8    13    14   ar
     9    14    15   ar
    10    15    16    1
    11    15    17   ar
    12    17    18   ar
    13    18    19    1
    14     6     7   ar
    15     7    20    1
    16    20    21    1
    17     5     8    1
    18     8     9    1
    19     9    24    1
    20    24    25    1
    21    25    26    2
    22    25    27   am
    23    27    29    1
    24    29    30    1
    25    30    31   ar
    26    31    32   ar
    27    32    33   ar
    28    33    34   ar
    29    34    35   ar
    30     9    10   am
    31    10    11    2
    32     7     2   ar
    33    35    30   ar
    34    10     4    1
    35    18    12   ar
    36    21    22    1
    37    21    23    1
    38    27    28    1
@<TRIPOS>MOLECULE
*****
 35 38 0 0 0
SMALL
GASTEIGER

@<TRIPOS>ATOM
      1 C          59.7305   88.7519    8.1129 C.3     1  UNL1        0.0518
      2 C          60.6888   88.5020    9.2396 C.ar    1  UNL1        0.0568
      3 N          61.2515   89.6560   10.0154 N.ar    1  UNL1       -0.2456
      4 C          62.2097   89.4062   11.1421 C.ar    1  UNL1        0.1319
      5 C          62.6051   88.0024   11.4930 C.ar    1  UNL1        0.0196
      6 C          62.0424   86.8485   10.7173 C.ar    1  UNL1       -0.0015
      7 C          61.0842   87.0984    9.5905 C.ar    1  UNL1        0.0068
      8 C          63.5625   88.0650   12.6461 C.3     1  UNL1        0.1226
      9 N          63.7587   89.5075   13.0078 N.am    1  UNL1       -0.2623
     10 C          62.9226   90.3364   12.0782 C.2     1  UNL1        0.2671
     11 O          62.8179   91.8327   12.0839 O.2     1  UNL1       -0.2682
     12 C          62.4378   85.4447   11.0682 C.ar    1  UNL1        0.0102
     13 C          62.1008   84.8861   12.4188 C.ar    1  UNL1        0.0017
     14 C          62.4962   83.4823   12.7698 C.ar    1  UNL1        0.0114
     15 C          63.2285   82.6373   11.7701 C.ar    1  UNL1        0.0585
     16 CL         63.6239   81.2335   12.1210 Cl      1  UNL1       -0.0822
     17 C          63.5656   83.1959   10.4194 C.ar    1  UNL1        0.0228
     18 C          63.1702   84.5997   10.0684 C.ar    1  UNL1        0.0585
     19 CL         63.5072   85.1584    8.7178 Cl      1  UNL1       -0.0822
     20 C          60.5214   85.9444    8.8147 C.3     1  UNL1        0.0934
     21 N          60.7652   85.8433    7.3382 N.3     1  UNL1       -0.3174
     22 H          60.2958   86.6138    6.8625 H       1  UNL1        0.1192
     23 H          60.3981   84.9565    6.9929 H       1  UNL1        0.1192
     24 C          64.6368   90.0295   14.1062 C.3     1  UNL1        0.1796
     25 C          65.1682   91.4306   14.0396 C.2     1  UNL1        0.2430
     26 O          65.2778   92.2513   15.2904 O.2     1  UNL1       -0.2732
     27 N          65.5902   92.0110   12.7224 N.am    1  UNL1       -0.2990
     28 H          65.5183   91.4724   11.9015 H       1  UNL1        0.1498
     29 C          66.1217   93.4121   12.6560 C.3     1  UNL1        0.1179
     30 C          66.6049   93.9697   11.3500 C.ar    1  UNL1        0.0166
     31 C          67.2754   93.0716   10.3532 C.ar    1  UNL1        0.0005
     32 C          67.7587   93.6292    9.0472 C.ar    1  UNL1        0.0204
     33 C          67.5715   95.0851    8.7381 C.ar    1  UNL1        0.0989
     34 N          66.9010   95.9833    9.7350 N.ar    1  UNL1       -0.2426
     35 C          66.4177   95.4255   11.0409 C.ar    1  UNL1        0.0962
@<TRIPOS>BOND
     1     1     2    1
     2     2     3   ar
     3     3     4   ar
     4     4     5   ar
     5     5     6   ar
     6     6    12    1
     7    12    13   ar
     8    13    14   ar
     9    14    15   ar
    10    15    16    1
    11    15    17   ar
    12    17    18   ar
    13    18    19    1
    14     6     7   ar
    15     7    20    1
    16    20    21    1
    17     5     8    1
    18     8     9    1
    19     9    24    1
    20    24    25    1
    21    25    26    2
    22    25    27   am
    23    27    29    1
    24    29    30    1
    25    30    31   ar
    26    31    32   ar
    27    32    33   ar
    28    33    34   ar
    29    34    35   ar
    30     9    10   am
    31    10    11    2
    32     7     2   ar
    33    35    30   ar
    34    10     4    1
    35    18    12   ar
    36    21    22    1
    37    21    23    1
    38    27    28    1
@<TRIPOS>MOLECULE
*****
 35 38 0 0 0
SMALL
GASTEIGER

@<TRIPOS>ATOM
      1 C          63.6669   83.9370   14.2714 C.3     1  UNL1        0.0518
      2 C          63.3962   85.0488   13.3014 C.ar    1  UNL1        0.0568
      3 N          63.5152   86.4767   13.7450 N.ar    1  UNL1       -0.2456
      4 C          63.2445   87.5884   12.7751 C.ar    1  UNL1        0.1319
      5 C          62.8548   87.2722   11.3616 C.ar    1  UNL1        0.0196
      6 C          62.7357   85.8443   10.9179 C.ar    1  UNL1       -0.0015
      7 C          63.0064   84.7326   11.8880 C.ar    1  UNL1        0.0068
      8 C          62.6510   88.5690   10.6357 C.3     1  UNL1        0.1226
      9 N          62.9149   89.6867   11.6007 N.am    1  UNL1       -0.2623
     10 C          63.2817   89.0807   12.9229 C.2     1  UNL1        0.2671
     11 O          63.6253   89.8345   14.1734 O.2     1  UNL1       -0.2682
     12 C          62.3460   85.5280    9.5044 C.ar    1  UNL1        0.0102
     13 C          63.3117   84.8205    8.6006 C.ar    1  UNL1        0.0017
     14 C          62.9220   84.5041    7.1871 C.ar    1  UNL1        0.0114
     15 C          61.5666   84.8954    6.6774 C.ar    1  UNL1        0.0585
     16 CL         61.1769   84.5791    5.2638 Cl      1  UNL1       -0.0822
     17 C          60.6009   85.6030    7.5811 C.ar    1  UNL1        0.0228
     18 C          60.9906   85.9193    8.9947 C.ar    1  UNL1        0.0585
     19 CL         60.0249   86.6268    9.8984 Cl      1  UNL1       -0.0822
     20 C          62.8874   83.3045   11.4443 C.3     1  UNL1        0.0934
     21 N          64.1195   82.5197   11.1041 N.3     1  UNL1       -0.3174
     22 H          64.5595   82.9198   10.2753 H       1  UNL1        0.1192
     23 H          63.8644   81.5496   10.9188 H       1  UNL1        0.1192
     24 C          62.8273   91.1530   11.2969 C.3     1  UNL1        0.1796
     25 C          64.0721   91.9897   11.2735 C.2     1  UNL1        0.2430
     26 O          64.4626   92.7181   10.0217 O.2     1  UNL1       -0.2732
     27 N          64.9263   92.0981   12.5018 N.am    1  UNL1       -0.2990
     28 H          64.6699   91.6200   13.3233 H       1  UNL1        0.1498
     29 C          66.1709   92.9348   12.4783 C.3     1  UNL1        0.1179
     30 C          67.1424   92.8662   13.6192 C.ar    1  UNL1        0.0166
     31 C          66.8098   93.5197   14.9277 C.ar    1  UNL1        0.0005
     32 C          67.7812   93.4511   16.0686 C.ar    1  UNL1        0.0204
     33 C          69.0853   92.7288   15.9009 C.ar    1  UNL1        0.0989
     34 N          69.4178   92.0753   14.5924 N.ar    1  UNL1       -0.2426
     35 C          68.4463   92.1439   13.4515 C.ar    1  UNL1        0.0962
@<TRIPOS>BOND
     1     1     2    1
     2     2     3   ar
     3     3     4   ar
     4     4     5   ar
     5     5     6   ar
     6     6    12    1
     7    12    13   ar
     8    13    14   ar
     9    14    15   ar
    10    15    16    1
    11    15    17   ar
    12    17    18   ar
    13    18    19    1
    14     6     7   ar
    15     7    20    1
    16    20    21    1
    17     5     8    1
    18     8     9    1
    19     9    24    1
    20    24    25    1
    21    25    26    2
    22    25    27   am
    23    27    29    1
    24    29    30    1
    25    30    31   ar
    26    31    32   ar
    27    32    33   ar
    28    33    34   ar
    29    34    35   ar
    30     9    10   am
    31    10    11    2
    32     7     2   ar
    33    35    30   ar
    34    10     4    1
    35    18    12   ar
    36    21    22    1
    37    21    23    1
    38    27    28    1
@<TRIPOS>MOLECULE
*****
 35 38 0 0 0
SMALL
GASTEIGER

@<TRIPOS>ATOM
      1 C          65.5488   93.5001   11.2448 C.3     1  UNL1        0.0518
      2 C          64.8365   92.4043   11.9810 C.ar    1  UNL1        0.0568
      3 N          64.9726   92.2899   13.4704 N.ar    1  UNL1       -0.2456
      4 C          64.2603   91.1942   14.2067 C.ar    1  UNL1        0.1319
      5 C          63.4120   90.2128   13.4535 C.ar    1  UNL1        0.0196
      6 C          63.2760   90.3272   11.9641 C.ar    1  UNL1       -0.0015
      7 C          63.9883   91.4230   11.2278 C.ar    1  UNL1        0.0068
      8 C          62.8334   89.2451   14.4428 C.3     1  UNL1        0.1226
      9 N          63.3242   89.6284   15.8074 N.am    1  UNL1       -0.2623
     10 C          64.2060   90.8330   15.6615 C.2     1  UNL1        0.2671
     11 O          64.9100   91.5504   16.7750 O.2     1  UNL1       -0.2682
     12 C          62.4277   89.3458   11.2108 C.ar    1  UNL1        0.0102
     13 C          63.0576   88.1399   10.5791 C.ar    1  UNL1        0.0017
     14 C          62.2094   87.1585    9.8258 C.ar    1  UNL1        0.0114
     15 C          60.7313   87.3831    9.7043 C.ar    1  UNL1        0.0585
     16 CL         59.8831   86.4017    8.9510 Cl      1  UNL1       -0.0822
     17 C          60.1014   88.5890   10.3360 C.ar    1  UNL1        0.0228
     18 C          60.9496   89.5704   11.0893 C.ar    1  UNL1        0.0585
     19 CL         60.3197   90.7762   11.7209 Cl      1  UNL1       -0.0822
     20 C          63.8522   91.5373    9.7383 C.3     1  UNL1        0.0934
     21 N          62.4920   91.5239    9.1062 N.3     1  UNL1       -0.3174
     22 H          62.0605   90.6105    9.2474 H       1  UNL1        0.1192
     23 H          62.5797   91.7077    8.1067 H       1  UNL1        0.1192
     24 C          62.9915   88.9298   17.0925 C.3     1  UNL1        0.1796
     25 C          62.9131   87.4324   17.1335 C.2     1  UNL1        0.2430
     26 O          62.3225   86.7449   18.3287 O.2     1  UNL1       -0.2732
     27 N          63.4252   86.6225   15.9795 N.am    1  UNL1       -0.2990
     28 H          63.8128   87.0737   15.1950 H       1  UNL1        0.1498
     29 C          63.3467   85.1252   16.0206 C.3     1  UNL1        0.1179
     30 C          63.0937   84.3525   14.7601 C.ar    1  UNL1        0.0166
     31 C          63.3354   84.9941   13.4259 C.ar    1  UNL1        0.0005
     32 C          63.0824   84.2214   12.1653 C.ar    1  UNL1        0.0204
     33 C          62.5878   82.8071   12.2389 C.ar    1  UNL1        0.0989
     34 N          62.3462   82.1656   13.5731 N.ar    1  UNL1       -0.2426
     35 C          62.5992   82.9383   14.8336 C.ar    1  UNL1        0.0962
@<TRIPOS>BOND
     1     1     2    1
     2     2     3   ar
     3     3     4   ar
     4     4     5   ar
     5     5     6   ar
     6     6    12    1
     7    12    13   ar
     8    13    14   ar
     9    14    15   ar
    10    15    16    1
    11    15    17   ar
    12    17    18   ar
    13    18    19    1
    14     6     7   ar
    15     7    20    1
    16    20    21    1
    17     5     8    1
    18     8     9    1
    19     9    24    1
    20    24    25    1
    21    25    26    2
    22    25    27   am
    23    27    29    1
    24    29    30    1
    25    30    31   ar
    26    31    32   ar
    27    32    33   ar
    28    33    34   ar
    29    34    35   ar
    30     9    10   am
    31    10    11    2
    32     7     2   ar
    33    35    30   ar
    34    10     4    1
    35    18    12   ar
    36    21    22    1
    37    21    23    1
    38    27    28    1
