@<TRIPOS>MOLECULE
*****
 44 48 0 0 0
SMALL
GASTEIGER

@<TRIPOS>ATOM
      1 C          63.8746   90.6267   12.6975 C.ar    1  UNL1        0.2006
      2 N          65.0518   91.3900   12.1671 N.ar    1  UNL1       -0.1999
      3 C          65.8780   92.2330   13.0927 C.ar    1  UNL1        0.1395
      4 C          65.5269   92.3126   14.5489 C.ar    1  UNL1        0.0883
      5 C          66.1516   93.0551   15.6928 C.ar    1  UNL1        0.1280
      6 N          65.3603   92.7507   16.9302 N.ar    1  UNL1       -0.1448
      7 N          64.2467   91.8200   16.5511 N.ar    1  UNL1       -0.1302
      8 C          64.3496   91.5493   15.0793 C.ar    1  UNL1        0.1682
      9 N          63.5235   90.7063   14.1536 N.ar    1  UNL1       -0.3104
     10 H          62.7508   90.2054   14.5018 H       1  UNL1        0.1701
     11 N          63.0484   89.7837   11.7718 N.pl3   1  UNL1       -0.2816
     12 H          62.5646   90.2031   11.0240 H       1  UNL1        0.1551
     13 C          64.3521   85.5405   14.4729 C.3     1  UNL1        0.0307
     14 C          63.6111   86.1801   13.3363 C.ar    1  UNL1       -0.0244
     15 C          63.7002   87.6620   13.1224 C.ar    1  UNL1        0.0132
     16 C          62.9593   88.3017   11.9857 C.ar    1  UNL1        0.0845
     17 C          62.1293   87.4594   11.0630 C.ar    1  UNL1        0.1513
     18 C          62.0402   85.9773   11.2769 C.ar    1  UNL1        0.0336
     19 C          62.7811   85.3377   12.4135 C.ar    1  UNL1       -0.0233
     20 C          62.6920   83.8557   12.6274 C.3     1  UNL1        0.0249
     21 C          62.1985   83.3152   13.9367 C.3     1  UNL1        0.0217
     22 C          62.1095   81.8333   14.1507 C.3     1  UNL1        0.0725
     23 N          62.5138   80.8917   13.0552 N.3     1  UNL1       -0.2715
     24 C          62.4248   79.4097   13.2690 C.3     1  UNL1        0.0896
     25 C          63.0072   81.4322   11.7458 C.3     1  UNL1        0.0725
     26 C          63.0963   82.9142   11.5319 C.3     1  UNL1        0.0217
     27 O          61.3884   88.0989    9.9264 O.3     1  UNL1       -0.4779
     28 C          60.7303   87.2438    8.8844 C.3     1  UNL1        0.1662
     29 C          61.5187   86.1798    8.1800 C.3     1  UNL1        0.0472
     30 C          59.2838   87.4528    8.5469 C.3     1  UNL1        0.0472
     31 N          67.0553   92.9963   12.5622 N.pl3   1  UNL1       -0.2967
     32 H          67.5294   93.6354   13.1419 H       1  UNL1        0.1536
     33 C          67.5102   92.7859   11.1485 C.ar    1  UNL1        0.0667
     34 C          68.3010   91.5630   10.7891 C.ar    1  UNL1        0.0159
     35 C          68.7559   91.3526    9.3753 C.ar    1  UNL1        0.0014
     36 C          68.4200   92.3652    8.3209 C.ar    1  UNL1        0.0014
     37 C          67.6292   93.5881    8.6802 C.ar    1  UNL1        0.0196
     38 C          67.1744   93.7985   10.0940 C.ar    1  UNL1        0.1189
     39 S          66.3836   95.0214   10.4533 S.O2    1  UNL1        0.0082
     40 O          65.1303   94.1984   10.4962 O.2     1  UNL1       -0.1686
     41 O          67.6369   95.8444   10.4105 O.2     1  UNL1       -0.1686
     42 C          65.5929   96.2444   10.8127 C.3     1  UNL1        0.1340
     43 C          64.6598   96.8557    9.8098 C.3     1  UNL1        0.0257
     44 C          65.7352   96.8560   12.1749 C.3     1  UNL1        0.0257
@<TRIPOS>BOND
     1    13    14    1
     2    14    15   ar
     3    15    16   ar
     4    16    11    1
     5    11     1    1
     6     1     2   ar
     7     2     3   ar
     8     3    31    1
     9    31    33    1
    10    33    34   ar
    11    34    35   ar
    12    35    36   ar
    13    36    37   ar
    14    37    38   ar
    15    38    39    1
    16    39    40    2
    17    39    41    2
    18    39    42    1
    19    42    43    1
    20    42    44    1
    21     3     4   ar
    22     4     5   ar
    23     5     6   ar
    24     6     7   ar
    25     7     8   ar
    26     8     9   ar
    27    16    17   ar
    28    17    27    1
    29    27    28    1
    30    28    29    1
    31    28    30    1
    32    17    18   ar
    33    18    19   ar
    34    19    20    1
    35    20    21    1
    36    21    22    1
    37    22    23    1
    38    23    24    1
    39    23    25    1
    40    25    26    1
    41    19    14   ar
    42    26    20    1
    43     9     1   ar
    44    38    33   ar
    45     8     4    1
    46    11    12    1
    47    31    32    1
    48     9    10    1
@<TRIPOS>MOLECULE
*****
 44 48 0 0 0
SMALL
GASTEIGER

@<TRIPOS>ATOM
      1 C          61.4734   88.7532   11.3517 C.ar    1  UNL1        0.2006
      2 N          62.1678   87.5098   11.8225 N.ar    1  UNL1       -0.1999
      3 C          62.1541   86.2749   10.9710 C.ar    1  UNL1        0.1395
      4 C          61.4460   86.2836    9.6487 C.ar    1  UNL1        0.0883
      5 C          61.2642   85.2260    8.6007 C.ar    1  UNL1        0.1280
      6 N          60.4575   85.8159    7.4821 N.ar    1  UNL1       -0.1448
      7 N          60.1407   87.2380    7.8388 N.ar    1  UNL1       -0.1302
      8 C          60.7516   87.5270    9.1779 C.ar    1  UNL1        0.1682
      9 N          60.7653   88.7618   10.0294 N.ar    1  UNL1       -0.3104
     10 H          60.3096   89.5779    9.7204 H       1  UNL1        0.1701
     11 N          61.4871   89.9881   12.2032 N.pl3   1  UNL1       -0.2816
     12 H          60.6406   90.4287   12.4450 H       1  UNL1        0.1551
     13 C          65.7302   92.8685   11.3666 C.3     1  UNL1        0.0307
     14 C          64.9122   91.9918   12.2679 C.ar    1  UNL1       -0.0244
     15 C          63.6087   91.4283   11.7849 C.ar    1  UNL1        0.0132
     16 C          62.7906   90.5516   12.6861 C.ar    1  UNL1        0.0845
     17 C          63.2762   90.2384   14.0704 C.ar    1  UNL1        0.1513
     18 C          64.5798   90.8019   14.5534 C.ar    1  UNL1        0.0336
     19 C          65.3978   91.6785   13.6522 C.ar    1  UNL1       -0.0233
     20 C          66.7013   92.2420   14.1351 C.3     1  UNL1        0.0249
     21 C          66.7140   93.2860   15.2122 C.3     1  UNL1        0.0217
     22 C          68.0175   93.8494   15.6952 C.3     1  UNL1        0.0725
     23 N          69.3083   93.3690   15.1011 N.3     1  UNL1       -0.2715
     24 C          70.6120   93.9324   15.5840 C.3     1  UNL1        0.0896
     25 C          69.2956   92.3251   14.0240 C.3     1  UNL1        0.0725
     26 C          67.9921   91.7616   13.5410 C.3     1  UNL1        0.0217
     27 O          62.4582   89.3617   14.9717 O.3     1  UNL1       -0.4779
     28 C          62.8613   89.1752   16.4044 C.3     1  UNL1        0.1662
     29 C          62.6773   87.8426   17.0679 C.3     1  UNL1        0.0472
     30 C          63.4486   90.3213   17.1735 C.3     1  UNL1        0.0472
     31 N          62.8485   85.0315   11.4419 N.pl3   1  UNL1       -0.2967
     32 H          62.8986   84.2431   10.8544 H       1  UNL1        0.1536
     33 C          63.4667   84.9893   12.8079 C.ar    1  UNL1        0.0667
     34 C          63.8507   86.2650   13.4972 C.ar    1  UNL1        0.0159
     35 C          64.4689   86.2227   14.8632 C.ar    1  UNL1        0.0014
     36 C          64.7030   84.9047   15.5400 C.ar    1  UNL1        0.0014
     37 C          64.3190   83.6290   14.8507 C.ar    1  UNL1        0.0196
     38 C          63.7009   83.6713   13.4847 C.ar    1  UNL1        0.1189
     39 S          63.3169   82.3955   12.7954 S.O2    1  UNL1        0.0082
     40 O          64.4689   82.5601   11.8490 O.2     1  UNL1       -0.1686
     41 O          62.1649   82.2309   13.7419 O.2     1  UNL1       -0.1686
     42 C          62.9329   81.1198   12.1062 C.3     1  UNL1        0.1340
     43 C          62.3780   79.9754   12.9013 C.3     1  UNL1        0.0257
     44 C          63.1038   80.9887   10.6217 C.3     1  UNL1        0.0257
@<TRIPOS>BOND
     1    13    14    1
     2    14    15   ar
     3    15    16   ar
     4    16    11    1
     5    11     1    1
     6     1     2   ar
     7     2     3   ar
     8     3    31    1
     9    31    33    1
    10    33    34   ar
    11    34    35   ar
    12    35    36   ar
    13    36    37   ar
    14    37    38   ar
    15    38    39    1
    16    39    40    2
    17    39    41    2
    18    39    42    1
    19    42    43    1
    20    42    44    1
    21     3     4   ar
    22     4     5   ar
    23     5     6   ar
    24     6     7   ar
    25     7     8   ar
    26     8     9   ar
    27    16    17   ar
    28    17    27    1
    29    27    28    1
    30    28    29    1
    31    28    30    1
    32    17    18   ar
    33    18    19   ar
    34    19    20    1
    35    20    21    1
    36    21    22    1
    37    22    23    1
    38    23    24    1
    39    23    25    1
    40    25    26    1
    41    19    14   ar
    42    26    20    1
    43     9     1   ar
    44    38    33   ar
    45     8     4    1
    46    11    12    1
    47    31    32    1
    48     9    10    1
@<TRIPOS>MOLECULE
*****
 44 48 0 0 0
SMALL
GASTEIGER

@<TRIPOS>ATOM
      1 C          63.8114   90.6840   12.7655 C.ar    1  UNL1        0.2006
      2 N          64.9692   91.4631   12.2158 N.ar    1  UNL1       -0.1999
      3 C          65.8104   92.3028   13.1310 C.ar    1  UNL1        0.1395
      4 C          65.4936   92.3632   14.5959 C.ar    1  UNL1        0.0883
      5 C          66.1394   93.0982   15.7329 C.ar    1  UNL1        0.1280
      6 N          65.3806   92.7732   16.9853 N.ar    1  UNL1       -0.1448
      7 N          64.2659   91.8374   16.6224 N.ar    1  UNL1       -0.1302
      8 C          64.3358   91.5840   15.1456 C.ar    1  UNL1        0.1682
      9 N          63.4947   90.7444   14.2304 N.ar    1  UNL1       -0.3104
     10 H          62.7347   90.2329   14.5913 H       1  UNL1        0.1701
     11 N          62.9702   89.8443   11.8504 N.pl3   1  UNL1       -0.2816
     12 H          62.4603   90.2686   11.1229 H       1  UNL1        0.1551
     13 C          64.3759   85.5821   14.4692 C.3     1  UNL1        0.0307
     14 C          63.6089   86.2270   13.3531 C.ar    1  UNL1       -0.0244
     15 C          63.6731   87.7131   13.1598 C.ar    1  UNL1        0.0132
     16 C          62.9060   88.3582   12.0437 C.ar    1  UNL1        0.0845
     17 C          62.0748   87.5171   11.1209 C.ar    1  UNL1        0.1513
     18 C          62.0106   86.0309   11.3142 C.ar    1  UNL1        0.0336
     19 C          62.7776   85.3859   12.4302 C.ar    1  UNL1       -0.0233
     20 C          62.7134   83.8998   12.6236 C.3     1  UNL1        0.0249
     21 C          62.1818   83.3327   13.9064 C.3     1  UNL1        0.0217
     22 C          62.1176   81.8466   14.0998 C.3     1  UNL1        0.0725
     23 N          62.5850   80.9277   13.0102 N.3     1  UNL1       -0.2715
     24 C          62.5208   79.4415   13.2034 C.3     1  UNL1        0.0896
     25 C          63.1165   81.4948   11.7273 C.3     1  UNL1        0.0725
     26 C          63.1807   82.9809   11.5340 C.3     1  UNL1        0.0217
     27 O          61.3077   88.1621   10.0048 O.3     1  UNL1       -0.4779
     28 C          60.7407   87.3205    8.9002 C.3     1  UNL1        0.1662
     29 C          59.3650   87.6026    8.3729 C.3     1  UNL1        0.0472
     30 C          61.5493   86.1968    8.3228 C.3     1  UNL1        0.0472
     31 N          66.9682   93.0820   12.5811 N.pl3   1  UNL1       -0.2967
     32 H          67.8890   92.7678   12.7318 H       1  UNL1        0.1536
     33 C          66.7232   94.3400   11.8019 C.ar    1  UNL1        0.0667
     34 C          66.1147   95.5337   12.4764 C.ar    1  UNL1        0.0159
     35 C          65.8697   96.7917   11.6970 C.ar    1  UNL1        0.0014
     36 C          66.2331   96.8560   10.2431 C.ar    1  UNL1        0.0014
     37 C          66.8416   95.6623    9.5686 C.ar    1  UNL1        0.0196
     38 C          67.0866   94.4044   10.3480 C.ar    1  UNL1        0.1189
     39 S          67.6950   93.2107    9.6735 S.O2    1  UNL1        0.0082
     40 O          66.3617   92.5236    9.6868 O.2     1  UNL1       -0.1686
     41 O          69.0283   93.8979    9.6601 O.2     1  UNL1       -0.1686
     42 C          68.3035   92.0171    8.9989 C.3     1  UNL1        0.1340
     43 C          67.8404   90.6361    9.3571 C.3     1  UNL1        0.0257
     44 C          69.3751   92.2045    7.9661 C.3     1  UNL1        0.0257
@<TRIPOS>BOND
     1    13    14    1
     2    14    15   ar
     3    15    16   ar
     4    16    11    1
     5    11     1    1
     6     1     2   ar
     7     2     3   ar
     8     3    31    1
     9    31    33    1
    10    33    34   ar
    11    34    35   ar
    12    35    36   ar
    13    36    37   ar
    14    37    38   ar
    15    38    39    1
    16    39    40    2
    17    39    41    2
    18    39    42    1
    19    42    43    1
    20    42    44    1
    21     3     4   ar
    22     4     5   ar
    23     5     6   ar
    24     6     7   ar
    25     7     8   ar
    26     8     9   ar
    27    16    17   ar
    28    17    27    1
    29    27    28    1
    30    28    29    1
    31    28    30    1
    32    17    18   ar
    33    18    19   ar
    34    19    20    1
    35    20    21    1
    36    21    22    1
    37    22    23    1
    38    23    24    1
    39    23    25    1
    40    25    26    1
    41    19    14   ar
    42    26    20    1
    43     9     1   ar
    44    38    33   ar
    45     8     4    1
    46    11    12    1
    47    31    32    1
    48     9    10    1
@<TRIPOS>MOLECULE
*****
 44 48 0 0 0
SMALL
GASTEIGER

@<TRIPOS>ATOM
      1 C          62.0660   87.8264   11.3812 C.ar    1  UNL1        0.2006
      2 N          63.0226   86.7115   11.6839 N.ar    1  UNL1       -0.1999
      3 C          63.1902   85.5820   10.7111 C.ar    1  UNL1        0.1395
      4 C          62.4011   85.5676    9.4355 C.ar    1  UNL1        0.0883
      5 C          62.3554   84.5949    8.2946 C.ar    1  UNL1        0.1280
      6 N          61.3706   85.1088    7.2866 N.ar    1  UNL1       -0.1448
      7 N          60.8075   86.3990    7.8047 N.ar    1  UNL1       -0.1302
      8 C          61.4444   86.6826    9.1328 C.ar    1  UNL1        0.1682
      9 N          61.2769   87.8120   10.1056 N.ar    1  UNL1       -0.3104
     10 H          60.6490   88.5438    9.9069 H       1  UNL1        0.1701
     11 N          61.8985   88.9559   12.3540 N.pl3   1  UNL1       -0.2816
     12 H          61.0007   89.1976   12.6777 H       1  UNL1        0.1551
     13 C          65.5570   92.5583   11.5552 C.3     1  UNL1        0.0307
     14 C          64.9281   91.5182   12.4341 C.ar    1  UNL1       -0.0244
     15 C          63.7278   90.7571   11.9546 C.ar    1  UNL1        0.0132
     16 C          63.0988   89.7169   12.8335 C.ar    1  UNL1        0.0845
     17 C          63.6703   89.4378   14.1920 C.ar    1  UNL1        0.1513
     18 C          64.8707   90.1988   14.6716 C.ar    1  UNL1        0.0336
     19 C          65.4995   91.2390   13.7927 C.ar    1  UNL1       -0.0233
     20 C          66.6999   92.0000   14.2722 C.3     1  UNL1        0.0249
     21 C          66.5442   93.0664   15.3156 C.3     1  UNL1        0.0217
     22 C          67.7445   93.8274   15.7952 C.3     1  UNL1        0.0725
     23 N          69.1006   93.5221   15.2313 N.3     1  UNL1       -0.2715
     24 C          70.3011   94.2831   15.7108 C.3     1  UNL1        0.0896
     25 C          69.2563   92.4557   14.1879 C.3     1  UNL1        0.0725
     26 C          68.0559   91.6947   13.7084 C.3     1  UNL1        0.0217
     27 O          63.0414   88.3976   15.0709 O.3     1  UNL1       -0.4779
     28 C          63.0010   88.5963   16.5572 C.3     1  UNL1        0.1662
     29 C          62.7963   87.4205   17.4658 C.3     1  UNL1        0.0472
     30 C          63.1653   89.9708   17.1348 C.3     1  UNL1        0.0472
     31 N          64.1469   84.4670   11.0139 N.pl3   1  UNL1       -0.2967
     32 H          65.1169   84.6350   11.0060 H       1  UNL1        0.1536
     33 C          63.6256   83.0963   11.3289 C.ar    1  UNL1        0.0667
     34 C          63.4481   82.0906   10.2302 C.ar    1  UNL1        0.0159
     35 C          62.9268   80.7199   10.5452 C.ar    1  UNL1        0.0014
     36 C          62.5830   80.3548   11.9589 C.ar    1  UNL1        0.0014
     37 C          62.7606   81.3604   13.0576 C.ar    1  UNL1        0.0196
     38 C          63.2819   82.7312   12.7426 C.ar    1  UNL1        0.1189
     39 S          63.4594   83.7368   13.8412 S.O2    1  UNL1        0.0082
     40 O          64.9423   83.7216   13.6156 O.2     1  UNL1       -0.1686
     41 O          61.9766   83.7521   14.0669 O.2     1  UNL1       -0.1686
     42 C          63.6370   84.7425   14.9399 C.3     1  UNL1        0.1340
     43 C          62.6625   84.7885   16.0793 C.3     1  UNL1        0.0257
     44 C          64.7891   85.7022   14.8991 C.3     1  UNL1        0.0257
@<TRIPOS>BOND
     1    13    14    1
     2    14    15   ar
     3    15    16   ar
     4    16    11    1
     5    11     1    1
     6     1     2   ar
     7     2     3   ar
     8     3    31    1
     9    31    33    1
    10    33    34   ar
    11    34    35   ar
    12    35    36   ar
    13    36    37   ar
    14    37    38   ar
    15    38    39    1
    16    39    40    2
    17    39    41    2
    18    39    42    1
    19    42    43    1
    20    42    44    1
    21     3     4   ar
    22     4     5   ar
    23     5     6   ar
    24     6     7   ar
    25     7     8   ar
    26     8     9   ar
    27    16    17   ar
    28    17    27    1
    29    27    28    1
    30    28    29    1
    31    28    30    1
    32    17    18   ar
    33    18    19   ar
    34    19    20    1
    35    20    21    1
    36    21    22    1
    37    22    23    1
    38    23    24    1
    39    23    25    1
    40    25    26    1
    41    19    14   ar
    42    26    20    1
    43     9     1   ar
    44    38    33   ar
    45     8     4    1
    46    11    12    1
    47    31    32    1
    48     9    10    1
@<TRIPOS>MOLECULE
*****
 44 48 0 0 0
SMALL
GASTEIGER

@<TRIPOS>ATOM
      1 C          63.7939   88.6374   13.6441 C.ar    1  UNL1        0.2006
      2 N          64.3877   89.9412   14.0881 N.ar    1  UNL1       -0.1999
      3 C          64.3501   91.1317   13.1763 C.ar    1  UNL1        0.1395
      4 C          63.7186   91.0182   11.8204 C.ar    1  UNL1        0.0883
      5 C          63.5347   92.0125   10.7125 C.ar    1  UNL1        0.1280
      6 N          62.8272   91.3231    9.5837 N.ar    1  UNL1       -0.1448
      7 N          62.5738   89.9027    9.9941 N.ar    1  UNL1       -0.1302
      8 C          63.1247   89.7143   11.3765 C.ar    1  UNL1        0.1682
      9 N          63.1624   88.5239   12.2883 N.ar    1  UNL1       -0.3104
     10 H          62.7726   87.6681   11.9969 H       1  UNL1        0.1701
     11 N          63.8315   87.4469   14.5560 N.pl3   1  UNL1       -0.2816
     12 H          63.9771   87.5709   15.5217 H       1  UNL1        0.1551
     13 C          63.2796   84.2852   10.4694 C.3     1  UNL1        0.0307
     14 C          63.3713   84.4866   11.9530 C.ar    1  UNL1       -0.0244
     15 C          63.5555   85.8660   12.5127 C.ar    1  UNL1        0.0132
     16 C          63.6473   86.0675   13.9963 C.ar    1  UNL1        0.0845
     17 C          63.5549   84.8894   14.9202 C.ar    1  UNL1        0.1513
     18 C          63.3707   83.5099   14.3605 C.ar    1  UNL1        0.0336
     19 C          63.2789   83.3085   12.8770 C.ar    1  UNL1       -0.0233
     20 C          63.0948   81.9291   12.3173 C.3     1  UNL1        0.0249
     21 C          63.3418   81.6717   10.8604 C.3     1  UNL1        0.0217
     22 C          63.1576   80.2923   10.3007 C.3     1  UNL1        0.0725
     23 N          62.7264   79.1703   11.1979 N.3     1  UNL1       -0.2715
     24 C          62.5421   77.7908   10.6383 C.3     1  UNL1        0.0896
     25 C          62.4793   79.4277   12.6549 C.3     1  UNL1        0.0725
     26 C          62.6635   80.8071   13.2146 C.3     1  UNL1        0.0217
     27 O          63.6467   85.0908   16.4038 O.3     1  UNL1       -0.4779
     28 C          62.5877   85.8741   17.1213 C.3     1  UNL1        0.1662
     29 C          61.1813   85.8864   16.5999 C.3     1  UNL1        0.0472
     30 C          62.9351   86.6450   18.3602 C.3     1  UNL1        0.0472
     31 N          64.9440   92.4356   13.6203 N.pl3   1  UNL1       -0.2967
     32 H          64.4651   93.2785   13.4487 H       1  UNL1        0.1536
     33 C          66.2675   92.4553   14.3259 C.ar    1  UNL1        0.0667
     34 C          66.3234   92.3264   15.8193 C.ar    1  UNL1        0.0159
     35 C          67.6469   92.3461   16.5248 C.ar    1  UNL1        0.0014
     36 C          68.9147   92.4947   15.7369 C.ar    1  UNL1        0.0014
     37 C          68.8588   92.6236   14.2435 C.ar    1  UNL1        0.0196
     38 C          67.5353   92.6039   13.5380 C.ar    1  UNL1        0.1189
     39 S          67.4794   92.7327   12.0446 S.O2    1  UNL1        0.0082
     40 O          68.3348   91.5082   11.9069 O.2     1  UNL1       -0.1686
     41 O          66.6241   93.9572   12.1822 O.2     1  UNL1       -0.1686
     42 C          67.4236   92.8616   10.5512 C.3     1  UNL1        0.1340
     43 C          66.5304   93.8879    9.9198 C.3     1  UNL1        0.0257
     44 C          68.2611   91.9640    9.6892 C.3     1  UNL1        0.0257
@<TRIPOS>BOND
     1    13    14    1
     2    14    15   ar
     3    15    16   ar
     4    16    11    1
     5    11     1    1
     6     1     2   ar
     7     2     3   ar
     8     3    31    1
     9    31    33    1
    10    33    34   ar
    11    34    35   ar
    12    35    36   ar
    13    36    37   ar
    14    37    38   ar
    15    38    39    1
    16    39    40    2
    17    39    41    2
    18    39    42    1
    19    42    43    1
    20    42    44    1
    21     3     4   ar
    22     4     5   ar
    23     5     6   ar
    24     6     7   ar
    25     7     8   ar
    26     8     9   ar
    27    16    17   ar
    28    17    27    1
    29    27    28    1
    30    28    29    1
    31    28    30    1
    32    17    18   ar
    33    18    19   ar
    34    19    20    1
    35    20    21    1
    36    21    22    1
    37    22    23    1
    38    23    24    1
    39    23    25    1
    40    25    26    1
    41    19    14   ar
    42    26    20    1
    43     9     1   ar
    44    38    33   ar
    45     8     4    1
    46    11    12    1
    47    31    32    1
    48     9    10    1
@<TRIPOS>MOLECULE
*****
 44 48 0 0 0
SMALL
GASTEIGER

@<TRIPOS>ATOM
      1 C          61.0458   89.3203   11.2873 C.ar    1  UNL1        0.2006
      2 N          61.3948   87.9693   11.8375 N.ar    1  UNL1       -0.1999
      3 C          61.2031   86.7436   10.9942 C.ar    1  UNL1        0.1395
      4 C          60.6623   86.8690    9.6008 C.ar    1  UNL1        0.0883
      5 C          60.3679   85.8474    8.5427 C.ar    1  UNL1        0.1280
      6 N          59.8370   86.5671    7.3385 N.ar    1  UNL1       -0.1448
      7 N          59.8032   88.0335    7.6523 N.ar    1  UNL1       -0.1302
      8 C          60.3133   88.2201    9.0505 C.ar    1  UNL1        0.1682
      9 N          60.5050   89.4457    9.8938 N.ar    1  UNL1       -0.3104
     10 H          60.2760   90.3325    9.5327 H       1  UNL1        0.1701
     11 N          61.2376   90.5460   12.1305 N.pl3   1  UNL1       -0.2816
     12 H          60.4581   91.0795   12.4080 H       1  UNL1        0.1551
     13 C          65.5997   93.2261   11.2421 C.3     1  UNL1        0.0307
     14 C          64.7981   92.2988   12.1067 C.ar    1  UNL1       -0.0244
     15 C          63.4187   91.8861   11.6863 C.ar    1  UNL1        0.0132
     16 C          62.6170   90.9587   12.5509 C.ar    1  UNL1        0.0845
     17 C          63.1949   90.4442   13.8359 C.ar    1  UNL1        0.1513
     18 C          64.5744   90.8570   14.2563 C.ar    1  UNL1        0.0336
     19 C          65.3760   91.7842   13.3918 C.ar    1  UNL1       -0.0233
     20 C          66.7554   92.1970   13.8122 C.3     1  UNL1        0.0249
     21 C          67.9532   91.6561   13.0891 C.3     1  UNL1        0.0217
     22 C          69.3326   92.0689   13.5094 C.3     1  UNL1        0.0725
     23 N          69.5143   93.0225   14.6530 N.3     1  UNL1       -0.2715
     24 C          70.8938   93.4354   15.0734 C.3     1  UNL1        0.0896
     25 C          68.3165   93.5633   15.3761 C.3     1  UNL1        0.0725
     26 C          66.9371   93.1506   14.9557 C.3     1  UNL1        0.0217
     27 O          62.3933   89.5169   14.7005 O.3     1  UNL1       -0.4779
     28 C          63.0901   88.5710   15.6332 C.3     1  UNL1        0.1662
     29 C          62.9845   88.7665   17.1166 C.3     1  UNL1        0.0472
     30 C          63.8924   87.4296   15.0823 C.3     1  UNL1        0.0472
     31 N          61.5522   85.3925   11.5446 N.pl3   1  UNL1       -0.2967
     32 H          61.0896   85.0521   12.3442 H       1  UNL1        0.1536
     33 C          62.6060   84.5600   10.8765 C.ar    1  UNL1        0.0667
     34 C          63.0896   84.9223    9.5036 C.ar    1  UNL1        0.0159
     35 C          64.1434   84.0897    8.8357 C.ar    1  UNL1        0.0014
     36 C          64.7138   82.8949    9.5407 C.ar    1  UNL1        0.0014
     37 C          64.2302   82.5325   10.9136 C.ar    1  UNL1        0.0196
     38 C          63.1763   83.3651   11.5815 C.ar    1  UNL1        0.1189
     39 S          62.6928   83.0028   12.9544 S.O2    1  UNL1        0.0082
     40 O          62.1179   81.7266   12.4151 O.2     1  UNL1       -0.1686
     41 O          63.2677   84.2789   13.4937 O.2     1  UNL1       -0.1686
     42 C          62.2093   82.6404   14.3273 C.3     1  UNL1        0.1340
     43 C          62.4601   83.5672   15.4797 C.3     1  UNL1        0.0257
     44 C          61.4749   81.3512   14.5478 C.3     1  UNL1        0.0257
@<TRIPOS>BOND
     1    13    14    1
     2    14    15   ar
     3    15    16   ar
     4    16    11    1
     5    11     1    1
     6     1     2   ar
     7     2     3   ar
     8     3    31    1
     9    31    33    1
    10    33    34   ar
    11    34    35   ar
    12    35    36   ar
    13    36    37   ar
    14    37    38   ar
    15    38    39    1
    16    39    40    2
    17    39    41    2
    18    39    42    1
    19    42    43    1
    20    42    44    1
    21     3     4   ar
    22     4     5   ar
    23     5     6   ar
    24     6     7   ar
    25     7     8   ar
    26     8     9   ar
    27    16    17   ar
    28    17    27    1
    29    27    28    1
    30    28    29    1
    31    28    30    1
    32    17    18   ar
    33    18    19   ar
    34    19    20    1
    35    20    21    1
    36    21    22    1
    37    22    23    1
    38    23    24    1
    39    23    25    1
    40    25    26    1
    41    19    14   ar
    42    26    20    1
    43     9     1   ar
    44    38    33   ar
    45     8     4    1
    46    11    12    1
    47    31    32    1
    48     9    10    1
@<TRIPOS>MOLECULE
*****
 44 48 0 0 0
SMALL
GASTEIGER

@<TRIPOS>ATOM
      1 C          63.0802   89.3737   12.4706 C.ar    1  UNL1        0.2006
      2 N          63.9797   90.5681   12.3523 N.ar    1  UNL1       -0.1999
      3 C          64.3549   91.3488   13.5770 C.ar    1  UNL1        0.1395
      4 C          63.8305   90.9349   14.9200 C.ar    1  UNL1        0.0883
      5 C          64.0265   91.5054   16.2934 C.ar    1  UNL1        0.1280
      6 N          63.2482   90.6634   17.2604 N.ar    1  UNL1       -0.1448
      7 N          62.5711   89.5726   16.4848 N.ar    1  UNL1       -0.1302
      8 C          62.9310   89.7403   15.0383 C.ar    1  UNL1        0.1682
      9 N          62.5559   88.9597   13.8136 N.ar    1  UNL1       -0.3104
     10 H          61.9655   88.1757   13.8912 H       1  UNL1        0.1701
     11 N          62.7050   88.5930   11.2459 N.pl3   1  UNL1       -0.2816
     12 H          62.4547   89.0648   10.4188 H       1  UNL1        0.1551
     13 C          63.5019   84.1560   13.8302 C.3     1  UNL1        0.0307
     14 C          63.1097   84.8749   12.5735 C.ar    1  UNL1       -0.0244
     15 C          63.1035   86.3745   12.5380 C.ar    1  UNL1        0.0132
     16 C          62.7113   87.0934   11.2813 C.ar    1  UNL1        0.0845
     17 C          62.3253   86.3128   10.0600 C.ar    1  UNL1        0.1513
     18 C          62.3315   84.8131   10.0954 C.ar    1  UNL1        0.0336
     19 C          62.7237   84.0943   11.3521 C.ar    1  UNL1       -0.0233
     20 C          62.7299   82.5947   11.3875 C.3     1  UNL1        0.0249
     21 C          63.1866   81.8180   10.1883 C.3     1  UNL1        0.0217
     22 C          63.1928   80.3185   10.2237 C.3     1  UNL1        0.0725
     23 N          62.7423   79.5956   11.4584 N.3     1  UNL1       -0.2715
     24 C          62.7485   78.0960   11.4940 C.3     1  UNL1        0.0896
     25 C          62.2856   80.3723   12.6577 C.3     1  UNL1        0.0725
     26 C          62.2794   81.8718   12.6222 C.3     1  UNL1        0.0217
     27 O          61.9331   87.0317    8.8033 O.3     1  UNL1       -0.4779
     28 C          60.4902   87.3432    8.5366 C.3     1  UNL1        0.1662
     29 C          59.6157   86.3275    7.8630 C.3     1  UNL1        0.0472
     30 C          59.9219   88.6704    8.9434 C.3     1  UNL1        0.0472
     31 N          65.2544   92.5434   13.4586 N.pl3   1  UNL1       -0.2967
     32 H          64.9530   93.3394   12.9640 H       1  UNL1        0.1536
     33 C          66.6131   92.5250   14.0939 C.ar    1  UNL1        0.0667
     34 C          66.7425   92.4332   15.5855 C.ar    1  UNL1        0.0159
     35 C          68.1012   92.4149   16.2207 C.ar    1  UNL1        0.0014
     36 C          69.3305   92.4883   15.3643 C.ar    1  UNL1        0.0014
     37 C          69.2011   92.5800   13.8728 C.ar    1  UNL1        0.0196
     38 C          67.8424   92.5984   13.2376 C.ar    1  UNL1        0.1189
     39 S          67.7130   92.6901   11.7460 S.O2    1  UNL1        0.0082
     40 O          68.5178   91.4329   11.5988 O.2     1  UNL1       -0.1686
     41 O          66.9082   93.9473   11.8931 O.2     1  UNL1       -0.1686
     42 C          67.5836   92.7819   10.2544 C.3     1  UNL1        0.1340
     43 C          66.7005   93.8278    9.6411 C.3     1  UNL1        0.0257
     44 C          68.3374   91.8277    9.3761 C.3     1  UNL1        0.0257
@<TRIPOS>BOND
     1    13    14    1
     2    14    15   ar
     3    15    16   ar
     4    16    11    1
     5    11     1    1
     6     1     2   ar
     7     2     3   ar
     8     3    31    1
     9    31    33    1
    10    33    34   ar
    11    34    35   ar
    12    35    36   ar
    13    36    37   ar
    14    37    38   ar
    15    38    39    1
    16    39    40    2
    17    39    41    2
    18    39    42    1
    19    42    43    1
    20    42    44    1
    21     3     4   ar
    22     4     5   ar
    23     5     6   ar
    24     6     7   ar
    25     7     8   ar
    26     8     9   ar
    27    16    17   ar
    28    17    27    1
    29    27    28    1
    30    28    29    1
    31    28    30    1
    32    17    18   ar
    33    18    19   ar
    34    19    20    1
    35    20    21    1
    36    21    22    1
    37    22    23    1
    38    23    24    1
    39    23    25    1
    40    25    26    1
    41    19    14   ar
    42    26    20    1
    43     9     1   ar
    44    38    33   ar
    45     8     4    1
    46    11    12    1
    47    31    32    1
    48     9    10    1
@<TRIPOS>MOLECULE
*****
 44 48 0 0 0
SMALL
GASTEIGER

@<TRIPOS>ATOM
      1 C          63.1157   89.6993   12.1984 C.ar    1  UNL1        0.2006
      2 N          63.8847   90.9372   11.8433 N.ar    1  UNL1       -0.1999
      3 C          64.3782   91.8502   12.9264 C.ar    1  UNL1        0.1395
      4 C          64.1025   91.5252   14.3646 C.ar    1  UNL1        0.0883
      5 C          64.4598   92.2305   15.6392 C.ar    1  UNL1        0.1280
      6 N          63.9115   91.4286   16.7821 N.ar    1  UNL1       -0.1448
      7 N          63.2154   90.2275   16.2138 N.ar    1  UNL1       -0.1302
      8 C          63.3335   90.2872   14.7196 C.ar    1  UNL1        0.1682
      9 N          62.8400   89.3743   13.6366 N.ar    1  UNL1       -0.3104
     10 H          62.3353   88.5618   13.8696 H       1  UNL1        0.1701
     11 N          62.6222   88.7863   11.1153 N.pl3   1  UNL1       -0.2816
     12 H          62.2996   89.1616   10.2642 H       1  UNL1        0.1551
     13 C          63.4685   84.6809   14.1860 C.3     1  UNL1        0.0307
     14 C          63.0435   85.2489   12.8644 C.ar    1  UNL1       -0.0244
     15 C          63.0454   86.7336   12.6506 C.ar    1  UNL1        0.0132
     16 C          62.6204   87.3017   11.3290 C.ar    1  UNL1        0.0845
     17 C          62.1935   86.3850   10.2211 C.ar    1  UNL1        0.1513
     18 C          62.1917   84.9002   10.4348 C.ar    1  UNL1        0.0336
     19 C          62.6167   84.3322   11.7564 C.ar    1  UNL1       -0.0233
     20 C          62.6148   82.8475   11.9701 C.3     1  UNL1        0.0249
     21 C          63.1049   81.9332   10.8866 C.3     1  UNL1        0.0217
     22 C          63.1030   80.4485   11.1004 C.3     1  UNL1        0.0725
     23 N          62.6111   79.8782   12.3975 N.3     1  UNL1       -0.2715
     24 C          62.6093   78.3934   12.6114 C.3     1  UNL1        0.0896
     25 C          62.1211   80.7925   13.4810 C.3     1  UNL1        0.0725
     26 C          62.1229   82.2772   13.2673 C.3     1  UNL1        0.0217
     27 O          61.7685   86.9530    8.8994 O.3     1  UNL1       -0.4779
     28 C          60.6139   86.3462    8.1587 C.3     1  UNL1        0.1662
     29 C          60.8566   85.2666    7.1460 C.3     1  UNL1        0.0472
     30 C          59.2166   86.8190    8.4307 C.3     1  UNL1        0.0472
     31 N          65.1473   93.0881   12.5712 N.pl3   1  UNL1       -0.2967
     32 H          64.9419   93.9406   13.0188 H       1  UNL1        0.1536
     33 C          66.2292   93.0272   11.5341 C.ar    1  UNL1        0.0667
     34 C          65.8901   93.2117   10.0847 C.ar    1  UNL1        0.0159
     35 C          66.9722   93.1508    9.0477 C.ar    1  UNL1        0.0014
     36 C          68.3933   92.9052    9.4601 C.ar    1  UNL1        0.0014
     37 C          68.7324   92.7207   10.9095 C.ar    1  UNL1        0.0196
     38 C          67.6504   92.7816   11.9466 C.ar    1  UNL1        0.1189
     39 S          67.9895   92.5970   13.3960 S.O2    1  UNL1        0.0082
     40 O          68.7629   91.3573   13.0572 O.2     1  UNL1       -0.1686
     41 O          67.2160   93.8368   13.7348 O.2     1  UNL1       -0.1686
     42 C          68.3286   92.4125   14.8455 C.3     1  UNL1        0.1340
     43 C          69.1319   93.4540   15.5664 C.3     1  UNL1        0.0257
     44 C          67.8643   91.1862   15.5740 C.3     1  UNL1        0.0257
@<TRIPOS>BOND
     1    13    14    1
     2    14    15   ar
     3    15    16   ar
     4    16    11    1
     5    11     1    1
     6     1     2   ar
     7     2     3   ar
     8     3    31    1
     9    31    33    1
    10    33    34   ar
    11    34    35   ar
    12    35    36   ar
    13    36    37   ar
    14    37    38   ar
    15    38    39    1
    16    39    40    2
    17    39    41    2
    18    39    42    1
    19    42    43    1
    20    42    44    1
    21     3     4   ar
    22     4     5   ar
    23     5     6   ar
    24     6     7   ar
    25     7     8   ar
    26     8     9   ar
    27    16    17   ar
    28    17    27    1
    29    27    28    1
    30    28    29    1
    31    28    30    1
    32    17    18   ar
    33    18    19   ar
    34    19    20    1
    35    20    21    1
    36    21    22    1
    37    22    23    1
    38    23    24    1
    39    23    25    1
    40    25    26    1
    41    19    14   ar
    42    26    20    1
    43     9     1   ar
    44    38    33   ar
    45     8     4    1
    46    11    12    1
    47    31    32    1
    48     9    10    1
