@<TRIPOS>MOLECULE
*****
 37 40 0 0 0
SMALL
GASTEIGER

@<TRIPOS>ATOM
      1 C          65.3094   92.1694   12.6035 C.2     1  UNL1        0.1397
      2 C          64.5337   91.0792   13.2814 C.2     1  UNL1        0.1355
      3 N          63.4927   90.3141   12.5193 N.pl3   1  UNL1       -0.1998
      4 C          63.2274   90.6392   11.0792 C.2     1  UNL1        0.3442
      5 N          64.0031   91.7294   10.4013 N.2     1  UNL1       -0.0580
      6 C          65.0441   92.4946   11.1635 C.3     1  UNL1        0.2692
      7 H          62.9836   89.5985   12.9642 H       1  UNL1        0.2983
      8 C          65.8198   93.5849   10.4855 C.ar    1  UNL1        0.0371
      9 C          65.2642   94.9771   10.4294 C.ar    1  UNL1        0.0030
     10 C          66.0399   96.0674    9.7515 C.ar    1  UNL1        0.0295
     11 C          67.3711   95.7655    9.1295 C.ar    1  UNL1        0.1406
     12 F          68.1467   96.8557    8.4516 F       1  UNL1       -0.2042
     13 C          67.9266   94.3733    9.1856 C.ar    1  UNL1        0.0362
     14 C          67.1509   93.2829    9.8636 C.ar    1  UNL1        0.0372
     15 BR         67.7065   91.8907    9.9196 Br      1  UNL1       -0.0491
     16 C          62.1864   89.8740   10.3171 C.ar    1  UNL1        0.1931
     17 N          60.9434   90.4475    9.7037 N.ar    1  UNL1       -0.2297
     18 C          60.1944   89.3290    9.0420 C.ar    1  UNL1        0.1067
     19 C          60.9744   88.0642    9.2464 C.ar    1  UNL1        0.0577
     20 S          62.2055   88.4011   10.0344 S.2     1  UNL1       -0.0586
     21 C          66.3504   92.9346   13.3657 C.2     1  UNL1        0.3447
     22 O          66.0086   94.2610   13.9770 O.2     1  UNL1       -0.2450
     23 O          67.7332   92.3733   13.5165 O.3     1  UNL1       -0.4455
     24 C          68.6745   93.2724   15.7650 C.3     1  UNL1        0.0513
     25 C          68.2944   92.1192   14.8842 C.3     1  UNL1        0.2089
     26 C          64.7990   90.7540   14.7216 C.3     1  UNL1        0.1405
     27 N          64.2914   89.4693   15.3062 N.3     1  UNL1       -0.2618
     28 C          63.4079   89.4942   16.5182 C.3     1  UNL1        0.1050
     29 C          62.9003   88.2094   17.1028 C.3     1  UNL1        0.1594
     30 O          63.2762   86.8998   16.4755 O.3     1  UNL1       -0.3533
     31 C          64.1596   86.8749   15.2635 C.3     1  UNL1        0.1316
     32 C          64.6672   88.1596   14.6789 C.3     1  UNL1        0.1024
     33 C          64.5355   85.5653   14.6361 C.3     1  UNL1        0.0369
     34 C          64.1784   84.2774   15.3173 C.3     1  UNL1        0.0442
     35 C          62.8451   83.6391   15.0630 C.2     1  UNL1        0.0504
     36 O          61.6166   84.4911   14.9414 O.co2   1  UNL1       -0.5492
     37 O          62.7403   82.1487   14.9303 O.co2   1  UNL1       -0.5492
@<TRIPOS>UNITY_ATOM_ATTR
36 1
charge -1
@<TRIPOS>BOND
     1    24    25    1
     2    25    23    1
     3    23    21    1
     4    21    22    2
     5    21     1    1
     6     1     2    2
     7     2    26    1
     8    26    27    1
     9    27    28    1
    10    28    29    1
    11    29    30    1
    12    30    31    1
    13    31    33    1
    14    33    34    1
    15    34    35    1
    16    35    36   ar
    17    35    37   ar
    18    31    32    1
    19     2     3    1
    20     3     4    1
    21     4    16    1
    22    16    17   ar
    23    17    18   ar
    24    18    19   ar
    25    19    20   ar
    26     4     5    2
    27     5     6    1
    28     6     8    1
    29     8     9   ar
    30     9    10   ar
    31    10    11   ar
    32    11    12    1
    33    11    13   ar
    34    13    14   ar
    35    14    15    1
    36     6     1    1
    37    14     8   ar
    38    32    27    1
    39    20    16   ar
    40     3     7    1
@<TRIPOS>MOLECULE
*****
 37 40 0 0 0
SMALL
GASTEIGER

@<TRIPOS>ATOM
      1 C          63.4890   85.6986   13.5537 C.2     1  UNL1        0.1397
      2 C          63.5305   87.1829   13.3416 C.2     1  UNL1        0.1355
      3 N          62.7651   87.8004   12.2089 N.pl3   1  UNL1       -0.1998
      4 C          61.9583   86.9336   11.2883 C.2     1  UNL1        0.3442
      5 N          61.9167   85.4493   11.5004 N.2     1  UNL1       -0.0580
      6 C          62.6821   84.8318   12.6331 C.3     1  UNL1        0.2692
      7 H          62.7924   88.7746   12.0697 H       1  UNL1        0.2983
      8 C          62.6405   83.3474   12.8452 C.ar    1  UNL1        0.0371
      9 C          61.8700   82.7758   13.9983 C.ar    1  UNL1        0.0030
     10 C          61.8284   81.2915   14.2104 C.ar    1  UNL1        0.0295
     11 C          62.5574   80.3787   13.2694 C.ar    1  UNL1        0.1406
     12 F          62.5158   78.8944   13.4815 F       1  UNL1       -0.2042
     13 C          63.3280   80.9502   12.1163 C.ar    1  UNL1        0.0362
     14 C          63.3695   82.4346   11.9042 C.ar    1  UNL1        0.0372
     15 BR         64.1400   83.0062   10.7511 Br      1  UNL1       -0.0491
     16 C          61.1929   87.5511   10.1556 C.ar    1  UNL1        0.1931
     17 N          61.0061   89.0198    9.9149 N.ar    1  UNL1       -0.2297
     18 C          60.1777   89.1847    8.6753 C.ar    1  UNL1        0.1067
     19 C          59.8525   87.8179    8.1499 C.ar    1  UNL1        0.0577
     20 S          60.4800   86.8082    9.0648 S.2     1  UNL1       -0.0586
     21 C          64.2543   85.0811   14.6864 C.2     1  UNL1        0.3447
     22 O          65.7229   84.8130   14.5410 O.2     1  UNL1       -0.2450
     23 O          63.5510   84.7318   15.9643 O.3     1  UNL1       -0.4455
     24 C          62.7509   86.6265   17.5518 C.3     1  UNL1        0.0513
     25 C          62.4559   85.6156   16.4835 C.3     1  UNL1        0.2089
     26 C          64.3374   88.0499   14.2622 C.3     1  UNL1        0.1405
     27 N          64.5131   89.5079   13.9571 N.3     1  UNL1       -0.2618
     28 C          63.9348   90.0861   12.6996 C.3     1  UNL1        0.1050
     29 C          64.1106   91.5443   12.3946 C.3     1  UNL1        0.1594
     30 O          64.8646   92.4242   13.3471 O.3     1  UNL1       -0.3533
     31 C          65.4429   91.8460   14.6046 C.3     1  UNL1        0.1316
     32 C          65.2672   90.3879   14.9096 C.3     1  UNL1        0.1024
     33 C          66.1970   92.7258   15.5570 C.3     1  UNL1        0.0369
     34 C          67.5795   92.3441   15.9963 C.3     1  UNL1        0.0442
     35 C          68.7722   93.0327   15.4020 C.2     1  UNL1        0.0504
     36 O          69.3570   94.2372   16.0781 O.co2   1  UNL1       -0.5492
     37 O          69.3802   92.5167   14.1315 O.co2   1  UNL1       -0.5492
@<TRIPOS>UNITY_ATOM_ATTR
36 1
charge -1
@<TRIPOS>BOND
     1    24    25    1
     2    25    23    1
     3    23    21    1
     4    21    22    2
     5    21     1    1
     6     1     2    2
     7     2    26    1
     8    26    27    1
     9    27    28    1
    10    28    29    1
    11    29    30    1
    12    30    31    1
    13    31    33    1
    14    33    34    1
    15    34    35    1
    16    35    36   ar
    17    35    37   ar
    18    31    32    1
    19     2     3    1
    20     3     4    1
    21     4    16    1
    22    16    17   ar
    23    17    18   ar
    24    18    19   ar
    25    19    20   ar
    26     4     5    2
    27     5     6    1
    28     6     8    1
    29     8     9   ar
    30     9    10   ar
    31    10    11   ar
    32    11    12    1
    33    11    13   ar
    34    13    14   ar
    35    14    15    1
    36     6     1    1
    37    14     8   ar
    38    32    27    1
    39    20    16   ar
    40     3     7    1
@<TRIPOS>MOLECULE
*****
 37 40 0 0 0
SMALL
GASTEIGER

@<TRIPOS>ATOM
      1 C          63.7175   85.5383   13.7464 C.2     1  UNL1        0.1397
      2 C          63.8886   87.0254   13.6513 C.2     1  UNL1        0.1355
      3 N          63.1323   87.8026   12.6148 N.pl3   1  UNL1       -0.1998
      4 C          62.2051   87.0926   11.6736 C.2     1  UNL1        0.3442
      5 N          62.0340   85.6054   11.7687 N.2     1  UNL1       -0.0580
      6 C          62.7903   84.8283   12.8051 C.3     1  UNL1        0.2692
      7 H          63.2446   88.7787   12.5524 H       1  UNL1        0.2983
      8 C          62.6192   83.3411   12.9002 C.ar    1  UNL1        0.0371
      9 C          61.8531   82.7459   14.0443 C.ar    1  UNL1        0.0030
     10 C          61.6820   81.2588   14.1394 C.ar    1  UNL1        0.0295
     11 C          62.2770   80.3667   13.0904 C.ar    1  UNL1        0.1406
     12 F          62.1059   78.8796   13.1856 F       1  UNL1       -0.2042
     13 C          63.0431   80.9619   11.9464 C.ar    1  UNL1        0.0362
     14 C          63.2142   82.4491   11.8513 C.ar    1  UNL1        0.0372
     15 BR         63.9802   83.0442   10.7072 Br      1  UNL1       -0.0491
     16 C          61.4489   87.8698   10.6371 C.ar    1  UNL1        0.1931
     17 N          61.2926   89.3609   10.5933 N.ar    1  UNL1       -0.2297
     18 C          60.4633   89.7050    9.3916 C.ar    1  UNL1        0.1067
     19 C          60.1070   88.4264    8.6928 C.ar    1  UNL1        0.0577
     20 S          60.7162   87.2922    9.4626 S.2     1  UNL1       -0.0586
     21 C          64.4737   84.7611   14.7828 C.2     1  UNL1        0.3447
     22 O          65.7994   84.1480   14.4413 O.2     1  UNL1       -0.2450
     23 O          63.9043   84.5971   16.1607 O.3     1  UNL1       -0.4455
     24 C          62.6519   86.3342   17.6318 C.3     1  UNL1        0.0513
     25 C          62.6382   85.3072   16.5385 C.3     1  UNL1        0.2089
     26 C          64.8159   87.7355   14.5926 C.3     1  UNL1        0.1405
     27 N          64.5247   89.1464   15.0103 N.3     1  UNL1       -0.2618
     28 C          63.4548   89.4226   16.0248 C.3     1  UNL1        0.1050
     29 C          63.1636   90.8335   16.4425 C.3     1  UNL1        0.1594
     30 O          63.9423   91.9682   15.8458 O.3     1  UNL1       -0.3533
     31 C          65.0121   91.6920   14.8313 C.3     1  UNL1        0.1316
     32 C          65.3033   90.2812   14.4136 C.3     1  UNL1        0.1024
     33 C          65.7908   92.8267   14.2346 C.3     1  UNL1        0.0369
     34 C          65.9345   92.9365   12.7455 C.3     1  UNL1        0.0442
     35 C          67.2410   92.5980   12.0911 C.2     1  UNL1        0.0504
     36 O          68.2649   91.7915   12.8335 O.co2   1  UNL1       -0.5492
     37 O          67.5236   93.0660   10.6943 O.co2   1  UNL1       -0.5492
@<TRIPOS>UNITY_ATOM_ATTR
36 1
charge -1
@<TRIPOS>BOND
     1    24    25    1
     2    25    23    1
     3    23    21    1
     4    21    22    2
     5    21     1    1
     6     1     2    2
     7     2    26    1
     8    26    27    1
     9    27    28    1
    10    28    29    1
    11    29    30    1
    12    30    31    1
    13    31    33    1
    14    33    34    1
    15    34    35    1
    16    35    36   ar
    17    35    37   ar
    18    31    32    1
    19     2     3    1
    20     3     4    1
    21     4    16    1
    22    16    17   ar
    23    17    18   ar
    24    18    19   ar
    25    19    20   ar
    26     4     5    2
    27     5     6    1
    28     6     8    1
    29     8     9   ar
    30     9    10   ar
    31    10    11   ar
    32    11    12    1
    33    11    13   ar
    34    13    14   ar
    35    14    15    1
    36     6     1    1
    37    14     8   ar
    38    32    27    1
    39    20    16   ar
    40     3     7    1
@<TRIPOS>MOLECULE
*****
 37 40 0 0 0
SMALL
GASTEIGER

@<TRIPOS>ATOM
      1 C          64.9167   91.1188   12.9114 C.2     1  UNL1        0.1397
      2 C          63.8089   90.2222   12.4435 C.2     1  UNL1        0.1355
      3 N          63.4574   88.9927   13.2275 N.pl3   1  UNL1       -0.1998
      4 C          64.2136   88.6597   14.4794 C.2     1  UNL1        0.3442
      5 N          65.3214   89.5563   14.9472 N.2     1  UNL1       -0.0580
      6 C          65.6729   90.7858   14.1632 C.3     1  UNL1        0.2692
      7 H          62.7303   88.4042   12.9204 H       1  UNL1        0.2983
      8 C          66.7808   91.6824   14.6311 C.ar    1  UNL1        0.0371
      9 C          68.0862   91.7094   13.8928 C.ar    1  UNL1        0.0030
     10 C          69.1940   92.6060   14.3607 C.ar    1  UNL1        0.0295
     11 C          68.9964   93.4756   15.5669 C.ar    1  UNL1        0.1406
     12 F          70.1042   94.3721   16.0347 F       1  UNL1       -0.2042
     13 C          67.6910   93.4486   16.3052 C.ar    1  UNL1        0.0362
     14 C          66.5831   92.5520   15.8373 C.ar    1  UNL1        0.0372
     15 BR         65.2777   92.5250   16.5755 Br      1  UNL1       -0.0491
     16 C          63.8621   87.4302   15.2634 C.ar    1  UNL1        0.1931
     17 N          63.0726   87.3931   16.5382 N.ar    1  UNL1       -0.2297
     18 C          62.9609   85.9619   16.9729 C.ar    1  UNL1        0.1067
     19 C          63.6814   85.1143   15.9667 C.ar    1  UNL1        0.0577
     20 S          64.2384   86.0217   14.9102 S.2     1  UNL1       -0.0586
     21 C          65.2682   92.3483   12.1274 C.2     1  UNL1        0.3447
     22 O          65.2639   93.6910   12.7961 O.2     1  UNL1       -0.2450
     23 O          65.6240   92.2352   10.6746 O.3     1  UNL1       -0.4455
     24 C          68.1126   92.0974    9.9411 C.3     1  UNL1        0.0513
     25 C          66.8630   92.8999   10.1520 C.3     1  UNL1        0.2089
     26 C          63.0526   90.5551   11.1916 C.3     1  UNL1        0.1405
     27 N          61.9502   89.6543   10.7194 N.3     1  UNL1       -0.2618
     28 C          60.5211   89.9966   11.0202 C.3     1  UNL1        0.1050
     29 C          59.4186   89.0956   10.5479 C.3     1  UNL1        0.1594
     30 O          59.7453   87.8524    9.7749 O.3     1  UNL1       -0.3533
     31 C          61.1744   87.5101    9.4740 C.3     1  UNL1        0.1316
     32 C          62.2768   88.4110    9.9463 C.3     1  UNL1        0.1024
     33 C          61.5011   86.2669    8.7010 C.3     1  UNL1        0.0369
     34 C          62.8435   85.6165    8.8589 C.3     1  UNL1        0.0442
     35 C          63.0720   84.6262    9.9621 C.2     1  UNL1        0.0504
     36 O          62.4652   84.8566   11.3144 O.co2   1  UNL1       -0.5492
     37 O          63.9072   83.4054    9.7130 O.co2   1  UNL1       -0.5492
@<TRIPOS>UNITY_ATOM_ATTR
36 1
charge -1
@<TRIPOS>BOND
     1    24    25    1
     2    25    23    1
     3    23    21    1
     4    21    22    2
     5    21     1    1
     6     1     2    2
     7     2    26    1
     8    26    27    1
     9    27    28    1
    10    28    29    1
    11    29    30    1
    12    30    31    1
    13    31    33    1
    14    33    34    1
    15    34    35    1
    16    35    36   ar
    17    35    37   ar
    18    31    32    1
    19     2     3    1
    20     3     4    1
    21     4    16    1
    22    16    17   ar
    23    17    18   ar
    24    18    19   ar
    25    19    20   ar
    26     4     5    2
    27     5     6    1
    28     6     8    1
    29     8     9   ar
    30     9    10   ar
    31    10    11   ar
    32    11    12    1
    33    11    13   ar
    34    13    14   ar
    35    14    15    1
    36     6     1    1
    37    14     8   ar
    38    32    27    1
    39    20    16   ar
    40     3     7    1
@<TRIPOS>MOLECULE
*****
 37 40 0 0 0
SMALL
GASTEIGER

@<TRIPOS>ATOM
      1 C          63.3768   86.6885   13.0948 C.2     1  UNL1        0.1397
      2 C          63.0662   88.0948   12.6756 C.2     1  UNL1        0.1355
      3 N          62.1829   88.3462   11.4895 N.pl3   1  UNL1       -0.1998
      4 C          61.6102   87.1912   10.7228 C.2     1  UNL1        0.3442
      5 N          61.9207   85.7849   11.1420 N.2     1  UNL1       -0.0580
      6 C          62.8040   85.5335   12.3280 C.3     1  UNL1        0.2692
      7 H          61.9791   89.2692   11.2144 H       1  UNL1        0.2983
      8 C          63.1145   84.1271   12.7472 C.ar    1  UNL1        0.0371
      9 C          64.0418   83.2857   11.9212 C.ar    1  UNL1        0.0030
     10 C          64.3523   81.8794   12.3403 C.ar    1  UNL1        0.0295
     11 C          63.7356   81.3144   13.5855 C.ar    1  UNL1        0.1406
     12 F          64.0462   79.9080   14.0047 F       1  UNL1       -0.2042
     13 C          62.8084   82.1557   14.4115 C.ar    1  UNL1        0.0362
     14 C          62.4978   83.5622   13.9923 C.ar    1  UNL1        0.0372
     15 BR         61.5706   84.4035   14.8183 Br      1  UNL1       -0.0491
     16 C          60.7269   87.4426    9.5367 C.ar    1  UNL1        0.1931
     17 N          60.0399   86.3954    8.7113 N.ar    1  UNL1       -0.2297
     18 C          59.2639   87.0909    7.6324 C.ar    1  UNL1        0.1067
     19 C          59.4714   88.5680    7.7909 C.ar    1  UNL1        0.0577
     20 S          60.3755   88.7853    8.9679 S.2     1  UNL1       -0.0586
     21 C          64.2601   86.4371   14.2808 C.2     1  UNL1        0.3447
     22 O          65.4634   85.5519   14.1455 O.2     1  UNL1       -0.2450
     23 O          63.9400   87.0709   15.6021 O.3     1  UNL1       -0.4455
     24 C          62.5513   86.6775   17.7623 C.3     1  UNL1        0.0513
     25 C          63.5843   86.2121   16.7793 C.3     1  UNL1        0.2089
     26 C          63.6390   89.2498   13.4424 C.3     1  UNL1        0.1405
     27 N          64.1071   90.4750   12.7145 N.3     1  UNL1       -0.2618
     28 C          63.6289   90.7468   11.3189 C.3     1  UNL1        0.1050
     29 C          64.0971   91.9720   10.5910 C.3     1  UNL1        0.1594
     30 O          65.0433   92.9253   11.2587 O.3     1  UNL1       -0.3533
     31 C          65.5215   92.6535   12.6542 C.3     1  UNL1        0.1316
     32 C          65.0534   91.4284   13.3821 C.3     1  UNL1        0.1024
     33 C          66.4677   93.6068   13.3218 C.3     1  UNL1        0.0369
     34 C          66.8291   93.4173   14.7653 C.3     1  UNL1        0.0442
     35 C          68.2633   93.5004   15.1965 C.2     1  UNL1        0.0504
     36 O          69.2904   92.6113   14.5604 O.co2   1  UNL1       -0.5492
     37 O          68.6705   94.4725   16.2638 O.co2   1  UNL1       -0.5492
@<TRIPOS>UNITY_ATOM_ATTR
36 1
charge -1
@<TRIPOS>BOND
     1    24    25    1
     2    25    23    1
     3    23    21    1
     4    21    22    2
     5    21     1    1
     6     1     2    2
     7     2    26    1
     8    26    27    1
     9    27    28    1
    10    28    29    1
    11    29    30    1
    12    30    31    1
    13    31    33    1
    14    33    34    1
    15    34    35    1
    16    35    36   ar
    17    35    37   ar
    18    31    32    1
    19     2     3    1
    20     3     4    1
    21     4    16    1
    22    16    17   ar
    23    17    18   ar
    24    18    19   ar
    25    19    20   ar
    26     4     5    2
    27     5     6    1
    28     6     8    1
    29     8     9   ar
    30     9    10   ar
    31    10    11   ar
    32    11    12    1
    33    11    13   ar
    34    13    14   ar
    35    14    15    1
    36     6     1    1
    37    14     8   ar
    38    32    27    1
    39    20    16   ar
    40     3     7    1
@<TRIPOS>MOLECULE
*****
 37 40 0 0 0
SMALL
GASTEIGER

@<TRIPOS>ATOM
      1 C          63.6132   89.7880   12.5088 C.2     1  UNL1        0.1397
      2 C          62.8132   88.7176   11.8274 C.2     1  UNL1        0.1355
      3 N          62.8044   87.3225   12.3784 N.pl3   1  UNL1       -0.1998
      4 C          63.5955   86.9978   13.6108 C.2     1  UNL1        0.3442
      5 N          64.3954   88.0682   14.2921 N.2     1  UNL1       -0.0580
      6 C          64.4043   89.4633   13.7411 C.3     1  UNL1        0.2692
      7 H          62.2793   86.6200   11.9312 H       1  UNL1        0.2983
      8 C          65.2043   90.5337   14.4225 C.ar    1  UNL1        0.0371
      9 C          66.5337   90.9469   13.8637 C.ar    1  UNL1        0.0030
     10 C          67.3337   92.0172   14.5450 C.ar    1  UNL1        0.0295
     11 C          66.8044   92.6745   15.7852 C.ar    1  UNL1        0.1406
     12 F          67.6044   93.7449   16.4665 F       1  UNL1       -0.2042
     13 C          65.4751   92.2614   16.3439 C.ar    1  UNL1        0.0362
     14 C          64.6750   91.1910   15.6625 C.ar    1  UNL1        0.0372
     15 BR         63.3457   90.7778   16.2213 Br      1  UNL1       -0.0491
     16 C          63.5866   85.6027   14.1618 C.ar    1  UNL1        0.1931
     17 N          62.3931   84.8795   14.7118 N.ar    1  UNL1       -0.2297
     18 C          62.8385   83.5157   15.1494 C.ar    1  UNL1        0.1067
     19 C          64.3074   83.3960   14.8700 C.ar    1  UNL1        0.0577
     20 S          64.7697   84.6858   14.2596 S.2     1  UNL1       -0.0586
     21 C          63.6221   91.1831   11.9577 C.2     1  UNL1        0.3447
     22 O          62.7778   92.2466   12.5950 O.2     1  UNL1       -0.2450
     23 O          64.4753   91.5148   10.7695 O.3     1  UNL1       -0.4455
     24 C          66.8175   92.6142   10.5342 C.3     1  UNL1        0.0513
     25 C          65.3442   92.7373   10.7879 C.3     1  UNL1        0.2089
     26 C          62.0221   89.0423   10.5950 C.3     1  UNL1        0.1405
     27 N          61.6051   87.9453    9.6608 N.3     1  UNL1       -0.2618
     28 C          60.2808   88.0197    8.9604 C.3     1  UNL1        0.1050
     29 C          59.8638   86.9227    8.0262 C.3     1  UNL1        0.1594
     30 O          60.7711   85.7513    7.7924 O.3     1  UNL1       -0.3533
     31 C          62.0955   85.6770    8.4929 C.3     1  UNL1        0.1316
     32 C          62.5124   86.7739    9.4271 C.3     1  UNL1        0.1024
     33 C          63.0028   84.5056    8.2592 C.3     1  UNL1        0.0369
     34 C          63.9330   84.0493    9.3439 C.3     1  UNL1        0.0442
     35 C          63.4289   83.1541   10.4368 C.2     1  UNL1        0.0504
     36 O          63.7852   81.6971   10.4371 O.co2   1  UNL1       -0.5492
     37 O          62.5685   83.7160   11.5294 O.co2   1  UNL1       -0.5492
@<TRIPOS>UNITY_ATOM_ATTR
36 1
charge -1
@<TRIPOS>BOND
     1    24    25    1
     2    25    23    1
     3    23    21    1
     4    21    22    2
     5    21     1    1
     6     1     2    2
     7     2    26    1
     8    26    27    1
     9    27    28    1
    10    28    29    1
    11    29    30    1
    12    30    31    1
    13    31    33    1
    14    33    34    1
    15    34    35    1
    16    35    36   ar
    17    35    37   ar
    18    31    32    1
    19     2     3    1
    20     3     4    1
    21     4    16    1
    22    16    17   ar
    23    17    18   ar
    24    18    19   ar
    25    19    20   ar
    26     4     5    2
    27     5     6    1
    28     6     8    1
    29     8     9   ar
    30     9    10   ar
    31    10    11   ar
    32    11    12    1
    33    11    13   ar
    34    13    14   ar
    35    14    15    1
    36     6     1    1
    37    14     8   ar
    38    32    27    1
    39    20    16   ar
    40     3     7    1
