@<TRIPOS>MOLECULE
*****
 27 29 0 0 0
SMALL
GASTEIGER

@<TRIPOS>ATOM
      1 C          65.7839   91.6346   14.5512 C.ar    1  UNL1        0.0534
      2 C          65.2504   90.3660   15.1479 C.ar    1  UNL1        0.0045
      3 C          64.3081   89.5049   14.3602 C.ar    1  UNL1        0.0001
      4 C          63.8993   89.9124   12.9757 C.ar    1  UNL1       -0.0002
      5 C          62.9569   89.0514   12.1880 C.ar    1  UNL1       -0.0017
      6 C          62.5481   89.4588   10.8035 C.ar    1  UNL1        0.0070
      7 C          63.0816   90.7275   10.2067 C.ar    1  UNL1       -0.0017
      8 C          64.0239   91.5885   10.9945 C.ar    1  UNL1       -0.0002
      9 C          64.4328   91.1810   12.3790 C.ar    1  UNL1        0.0001
     10 C          65.3751   92.0421   13.1668 C.ar    1  UNL1        0.0045
     11 C          68.9894   93.7560   15.5385 C.3     1  UNL1        0.1109
     12 N          68.0471   92.8949   14.7507 N.am    1  UNL1       -0.2992
     13 C          66.7263   92.4956   15.3390 C.2     1  UNL1        0.2459
     14 O          66.3478   92.9575   16.7150 O.2     1  UNL1       -0.2701
     15 H          68.2955   92.5918   13.8476 H       1  UNL1        0.1498
     16 C          61.6058   88.5978   10.0158 C.3     1  UNL1        0.1410
     17 O          62.7502   88.1142    9.1753 O.3     1  UNL1       -0.3771
     18 H          63.5714   88.5349    9.4744 H       1  UNL1        0.2112
     19 C          60.4613   89.0814   10.8562 C.ar    1  UNL1        0.0825
     20 C          59.8990   90.4719   10.8639 C.ar    1  UNL1        0.1157
     21 N          58.7684   90.5093   11.8489 N.ar    1  UNL1       -0.2228
     22 C          58.6320   89.1418   12.4500 C.ar    1  UNL1        0.1749
     23 N          59.6783   88.2593   11.8365 N.ar    1  UNL1       -0.3361
     24 H          59.8253   87.3076   12.0412 H       1  UNL1        0.1673
     25 C          60.6634   87.7367    9.2280 C.3     1  UNL1        0.0340
     26 C          60.7109   86.2446    9.3741 C.3     1  UNL1        0.0031
     27 C          59.6736   88.3678    8.2941 C.3     1  UNL1        0.0031
@<TRIPOS>BOND
     1    11    12    1
     2    12    13   am
     3    13    14    2
     4    13     1    1
     5     1     2   ar
     6     2     3   ar
     7     3     4   ar
     8     4     5   ar
     9     5     6   ar
    10     6    16    1
    11    16    17    1
    12    16    19    1
    13    19    20   ar
    14    20    21   ar
    15    21    22   ar
    16    22    23   ar
    17    16    25    1
    18    25    26    1
    19    25    27    1
    20     6     7   ar
    21     7     8   ar
    22     8     9   ar
    23     9    10   ar
    24    10     1   ar
    25     9     4   ar
    26    23    19   ar
    27    12    15    1
    28    17    18    1
    29    23    24    1
@<TRIPOS>MOLECULE
*****
 27 29 0 0 0
SMALL
GASTEIGER

@<TRIPOS>ATOM
      1 C          64.1745   89.4428   13.6322 C.ar    1  UNL1        0.0534
      2 C          63.3889   89.0234   12.4252 C.ar    1  UNL1        0.0045
      3 C          62.9583   87.5949   12.2697 C.ar    1  UNL1        0.0001
      4 C          63.3134   86.5859   13.3212 C.ar    1  UNL1       -0.0002
      5 C          62.8829   85.1574   13.1657 C.ar    1  UNL1       -0.0017
      6 C          63.2380   84.1484   14.2172 C.ar    1  UNL1        0.0070
      7 C          64.0236   84.5678   15.4243 C.ar    1  UNL1       -0.0017
      8 C          64.4542   85.9962   15.5798 C.ar    1  UNL1       -0.0002
      9 C          64.0990   87.0053   14.5282 C.ar    1  UNL1        0.0001
     10 C          64.5296   88.4337   14.6837 C.ar    1  UNL1        0.0045
     11 C          66.0468   92.6688   14.9878 C.3     1  UNL1        0.1109
     12 N          65.6162   91.2403   14.8323 N.am    1  UNL1       -0.2992
     13 C          64.6050   90.8712   13.7877 C.2     1  UNL1        0.2459
     14 O          64.0243   91.9306   12.8987 O.2     1  UNL1       -0.2701
     15 H          65.9974   90.5450   15.4158 H       1  UNL1        0.1498
     16 C          62.8074   82.7199   14.0617 C.3     1  UNL1        0.1410
     17 O          62.2535   82.7352   15.4556 O.3     1  UNL1       -0.3771
     18 H          62.3966   83.6094   15.8509 H       1  UNL1        0.2112
     19 C          63.3614   82.7047   12.6679 C.ar    1  UNL1        0.0825
     20 C          64.8051   82.8581   12.2912 C.ar    1  UNL1        0.1157
     21 N          64.9049   82.7816   10.7965 N.ar    1  UNL1       -0.2228
     22 C          63.5227   82.5810   10.2494 C.ar    1  UNL1        0.1749
     23 N          62.5688   82.5334   11.4060 N.ar    1  UNL1       -0.3361
     24 H          61.5937   82.4113   11.3472 H       1  UNL1        0.1673
     25 C          62.3769   81.2915   13.9062 C.3     1  UNL1        0.0340
     26 C          60.9252   80.9297   14.0143 C.3     1  UNL1        0.0031
     27 C          63.3981   80.2248   13.6427 C.3     1  UNL1        0.0031
@<TRIPOS>BOND
     1    11    12    1
     2    12    13   am
     3    13    14    2
     4    13     1    1
     5     1     2   ar
     6     2     3   ar
     7     3     4   ar
     8     4     5   ar
     9     5     6   ar
    10     6    16    1
    11    16    17    1
    12    16    19    1
    13    19    20   ar
    14    20    21   ar
    15    21    22   ar
    16    22    23   ar
    17    16    25    1
    18    25    26    1
    19    25    27    1
    20     6     7   ar
    21     7     8   ar
    22     8     9   ar
    23     9    10   ar
    24    10     1   ar
    25     9     4   ar
    26    23    19   ar
    27    12    15    1
    28    17    18    1
    29    23    24    1
@<TRIPOS>MOLECULE
*****
 27 29 0 0 0
SMALL
GASTEIGER

@<TRIPOS>ATOM
      1 C          65.7229   92.4030   12.8597 C.ar    1  UNL1        0.0534
      2 C          65.7316   92.7899   11.4105 C.ar    1  UNL1        0.0045
      3 C          64.7529   92.1645   10.4614 C.ar    1  UNL1        0.0001
      4 C          63.7655   91.1521   10.9614 C.ar    1  UNL1       -0.0002
      5 C          62.7868   90.5266   10.0122 C.ar    1  UNL1       -0.0017
      6 C          61.7993   89.5143   10.5122 C.ar    1  UNL1        0.0070
      7 C          61.7906   89.1273   11.9615 C.ar    1  UNL1       -0.0017
      8 C          62.7693   89.7527   12.9106 C.ar    1  UNL1       -0.0002
      9 C          63.7568   90.7651   12.4105 C.ar    1  UNL1        0.0001
     10 C          64.7355   91.3906   13.3597 C.ar    1  UNL1        0.0045
     11 C          68.7868   92.8291   15.3459 C.3     1  UNL1        0.1109
     12 N          67.8081   92.2037   14.3967 N.am    1  UNL1       -0.2992
     13 C          66.7016   93.0284   13.8089 C.2     1  UNL1        0.2459
     14 O          66.5739   94.4786   14.1703 O.2     1  UNL1       -0.2701
     15 H          67.8919   91.2519   14.1595 H       1  UNL1        0.1498
     16 C          60.8206   88.8888    9.5630 C.3     1  UNL1        0.1410
     17 O          60.2522   90.2428    9.2570 O.3     1  UNL1       -0.3771
     18 H          60.7264   90.9159    9.7697 H       1  UNL1        0.2112
     19 C          61.3891   87.5348    9.8691 C.ar    1  UNL1        0.0825
     20 C          62.3397   86.7617    9.0040 C.ar    1  UNL1        0.1157
     21 N          62.6448   85.4653    9.6942 N.ar    1  UNL1       -0.2228
     22 C          61.8827   85.4374   10.9859 C.ar    1  UNL1        0.1749
     23 N          61.1066   86.7164   11.0939 N.ar    1  UNL1       -0.3361
     24 H          60.5156   86.9736   11.8381 H       1  UNL1        0.1673
     25 C          59.8419   88.2634    8.6139 C.3     1  UNL1        0.0340
     26 C          59.5748   88.9020    7.2832 C.3     1  UNL1        0.0031
     27 C          59.1302   86.9992    8.9954 C.3     1  UNL1        0.0031
@<TRIPOS>BOND
     1    11    12    1
     2    12    13   am
     3    13    14    2
     4    13     1    1
     5     1     2   ar
     6     2     3   ar
     7     3     4   ar
     8     4     5   ar
     9     5     6   ar
    10     6    16    1
    11    16    17    1
    12    16    19    1
    13    19    20   ar
    14    20    21   ar
    15    21    22   ar
    16    22    23   ar
    17    16    25    1
    18    25    26    1
    19    25    27    1
    20     6     7   ar
    21     7     8   ar
    22     8     9   ar
    23     9    10   ar
    24    10     1   ar
    25     9     4   ar
    26    23    19   ar
    27    12    15    1
    28    17    18    1
    29    23    24    1
@<TRIPOS>MOLECULE
*****
 27 29 0 0 0
SMALL
GASTEIGER

@<TRIPOS>ATOM
      1 C          61.6042   88.3655   10.1976 C.ar    1  UNL1        0.0534
      2 C          61.7699   89.7313    9.6000 C.ar    1  UNL1        0.0045
      3 C          62.6288   90.7513   10.2869 C.ar    1  UNL1        0.0001
      4 C          63.3219   90.4056   11.5714 C.ar    1  UNL1       -0.0002
      5 C          64.1808   91.4257   12.2584 C.ar    1  UNL1       -0.0017
      6 C          64.8739   91.0800   13.5429 C.ar    1  UNL1        0.0070
      7 C          64.7082   89.7142   14.1406 C.ar    1  UNL1       -0.0017
      8 C          63.8493   88.6941   13.4536 C.ar    1  UNL1       -0.0002
      9 C          63.1562   89.0399   12.1691 C.ar    1  UNL1        0.0001
     10 C          62.2973   88.0198   11.4822 C.ar    1  UNL1        0.0045
     11 C          58.9067   86.7554    7.7726 C.3     1  UNL1        0.1109
     12 N          59.7655   87.7754    8.4595 N.am    1  UNL1       -0.2992
     13 C          60.7453   87.3455    9.5107 C.2     1  UNL1        0.2459
     14 O          60.8663   85.8955    9.8750 O.2     1  UNL1       -0.2701
     15 H          59.6861   88.7272    8.2204 H       1  UNL1        0.1498
     16 C          65.7328   92.1001   14.2298 C.3     1  UNL1        0.1410
     17 O          64.8541   92.0228   15.4430 O.3     1  UNL1       -0.3771
     18 H          64.1411   91.3843   15.2858 H       1  UNL1        0.2112
     19 C          66.6114   92.1773   13.0165 C.ar    1  UNL1        0.0825
     20 C          68.0068   91.6389   12.9028 C.ar    1  UNL1        0.1157
     21 N          68.5067   91.9353   11.5200 N.ar    1  UNL1       -0.2228
     22 C          67.4202   92.6569   10.7791 C.ar    1  UNL1        0.1749
     23 N          66.2488   92.8064   11.7040 N.ar    1  UNL1       -0.3361
     24 H          65.3924   93.2411   11.4877 H       1  UNL1        0.1673
     25 C          66.5916   93.1201   14.9167 C.3     1  UNL1        0.0340
     26 C          66.8544   94.4433   14.2609 C.3     1  UNL1        0.0031
     27 C          67.1877   92.8169   16.2594 C.3     1  UNL1        0.0031
@<TRIPOS>BOND
     1    11    12    1
     2    12    13   am
     3    13    14    2
     4    13     1    1
     5     1     2   ar
     6     2     3   ar
     7     3     4   ar
     8     4     5   ar
     9     5     6   ar
    10     6    16    1
    11    16    17    1
    12    16    19    1
    13    19    20   ar
    14    20    21   ar
    15    21    22   ar
    16    22    23   ar
    17    16    25    1
    18    25    26    1
    19    25    27    1
    20     6     7   ar
    21     7     8   ar
    22     8     9   ar
    23     9    10   ar
    24    10     1   ar
    25     9     4   ar
    26    23    19   ar
    27    12    15    1
    28    17    18    1
    29    23    24    1
@<TRIPOS>MOLECULE
*****
 27 29 0 0 0
SMALL
GASTEIGER

@<TRIPOS>ATOM
      1 C          64.1319   89.5185   14.0706 C.ar    1  UNL1        0.0534
      2 C          63.4791   89.5291   12.7202 C.ar    1  UNL1        0.0045
      3 C          63.7609   90.6462   11.7596 C.ar    1  UNL1        0.0001
      4 C          64.6954   91.7527   12.1495 C.ar    1  UNL1       -0.0002
      5 C          64.9772   92.8698   11.1889 C.ar    1  UNL1       -0.0017
      6 C          65.9118   93.9764   11.5788 C.ar    1  UNL1        0.0070
      7 C          66.5647   93.9658   12.9293 C.ar    1  UNL1       -0.0017
      8 C          66.2829   92.8487   13.8898 C.ar    1  UNL1       -0.0002
      9 C          65.3483   91.7422   13.4999 C.ar    1  UNL1        0.0001
     10 C          65.0665   90.6251   14.4605 C.ar    1  UNL1        0.0045
     11 C          62.8960   87.5728   17.3012 C.3     1  UNL1        0.1109
     12 N          63.1778   88.6899   16.3407 N.am    1  UNL1       -0.2992
     13 C          63.8501   88.4014   15.0312 C.2     1  UNL1        0.2459
     14 O          64.2406   86.9958   14.6823 O.2     1  UNL1       -0.2701
     15 H          62.9215   89.6125   16.5697 H       1  UNL1        0.1498
     16 C          66.1936   95.0935   10.6182 C.3     1  UNL1        0.1410
     17 O          65.2806   95.9934   11.3970 O.3     1  UNL1       -0.3771
     18 H          64.9120   95.5063   12.1505 H       1  UNL1        0.2112
     19 C          67.1066   94.1935    9.8394 C.ar    1  UNL1        0.0825
     20 C          67.2861   94.1949    8.3503 C.ar    1  UNL1        0.1157
     21 N          68.2908   93.1364    8.0036 N.ar    1  UNL1       -0.2228
     22 C          68.7322   92.4809    9.2785 C.ar    1  UNL1        0.1749
     23 N          68.0003   93.1342   10.4131 N.ar    1  UNL1       -0.3361
     24 H          68.0906   92.9076   11.3669 H       1  UNL1        0.1673
     25 C          66.4754   96.2106    9.6577 C.3     1  UNL1        0.0340
     26 C          65.4034   96.6822    8.7205 C.3     1  UNL1        0.0031
     27 C          67.8293   96.8560    9.6343 C.3     1  UNL1        0.0031
@<TRIPOS>BOND
     1    11    12    1
     2    12    13   am
     3    13    14    2
     4    13     1    1
     5     1     2   ar
     6     2     3   ar
     7     3     4   ar
     8     4     5   ar
     9     5     6   ar
    10     6    16    1
    11    16    17    1
    12    16    19    1
    13    19    20   ar
    14    20    21   ar
    15    21    22   ar
    16    22    23   ar
    17    16    25    1
    18    25    26    1
    19    25    27    1
    20     6     7   ar
    21     7     8   ar
    22     8     9   ar
    23     9    10   ar
    24    10     1   ar
    25     9     4   ar
    26    23    19   ar
    27    12    15    1
    28    17    18    1
    29    23    24    1
@<TRIPOS>MOLECULE
*****
 27 29 0 0 0
SMALL
GASTEIGER

@<TRIPOS>ATOM
      1 C          60.2863   88.6277    8.6072 C.ar    1  UNL1        0.0534
      2 C          60.8910   89.7171    9.4424 C.ar    1  UNL1        0.0045
      3 C          61.7336   89.3689   10.6335 C.ar    1  UNL1        0.0001
      4 C          61.9715   87.9314   10.9895 C.ar    1  UNL1       -0.0002
      5 C          62.8141   87.5832   12.1806 C.ar    1  UNL1       -0.0017
      6 C          63.0520   86.1457   12.5366 C.ar    1  UNL1        0.0070
      7 C          62.4473   85.0562   11.7015 C.ar    1  UNL1       -0.0017
      8 C          61.6047   85.4043   10.5104 C.ar    1  UNL1       -0.0002
      9 C          61.3668   86.8420   10.1544 C.ar    1  UNL1        0.0001
     10 C          60.5242   87.1901    8.9632 C.ar    1  UNL1        0.0045
     11 C          58.9483   90.5160    5.3833 C.3     1  UNL1        0.1109
     12 N          59.7909   90.1678    6.5744 N.am    1  UNL1       -0.2992
     13 C          59.4437   88.9758    7.4161 C.2     1  UNL1        0.2459
     14 O          58.2538   88.1320    7.0667 O.2     1  UNL1       -0.2701
     15 H          60.5719   90.7217    6.8037 H       1  UNL1        0.1498
     16 C          63.8946   85.7975   13.7278 C.3     1  UNL1        0.1410
     17 O          64.0084   87.2529   14.0727 O.3     1  UNL1       -0.3771
     18 H          63.5192   87.7788   13.4208 H       1  UNL1        0.2112
     19 C          63.7808   84.3421   13.3829 C.ar    1  UNL1        0.0825
     20 C          62.7628   83.3842   13.9267 C.ar    1  UNL1        0.1157
     21 N          63.0179   82.0392   13.3135 N.ar    1  UNL1       -0.2228
     22 C          64.1937   82.1660   12.3908 C.ar    1  UNL1        0.1749
     23 N          64.6652   83.5893   12.4337 N.ar    1  UNL1       -0.3361
     24 H          65.4222   83.9636   11.9277 H       1  UNL1        0.1673
     25 C          64.7372   85.4494   14.9189 C.3     1  UNL1        0.0340
     26 C          66.1836   85.0960   14.7370 C.3     1  UNL1        0.0031
     27 C          64.1334   85.4546   16.2921 C.3     1  UNL1        0.0031
@<TRIPOS>BOND
     1    11    12    1
     2    12    13   am
     3    13    14    2
     4    13     1    1
     5     1     2   ar
     6     2     3   ar
     7     3     4   ar
     8     4     5   ar
     9     5     6   ar
    10     6    16    1
    11    16    17    1
    12    16    19    1
    13    19    20   ar
    14    20    21   ar
    15    21    22   ar
    16    22    23   ar
    17    16    25    1
    18    25    26    1
    19    25    27    1
    20     6     7   ar
    21     7     8   ar
    22     8     9   ar
    23     9    10   ar
    24    10     1   ar
    25     9     4   ar
    26    23    19   ar
    27    12    15    1
    28    17    18    1
    29    23    24    1
@<TRIPOS>MOLECULE
*****
 27 29 0 0 0
SMALL
GASTEIGER

@<TRIPOS>ATOM
      1 C          61.7111   87.2444    9.9672 C.ar    1  UNL1        0.0534
      2 C          62.1801   86.4324   11.1379 C.ar    1  UNL1        0.0045
      3 C          62.9460   87.0894   12.2477 C.ar    1  UNL1        0.0001
      4 C          63.2428   88.5585   12.1869 C.ar    1  UNL1       -0.0002
      5 C          64.0087   89.2155   13.2967 C.ar    1  UNL1       -0.0017
      6 C          64.3055   90.6845   13.2359 C.ar    1  UNL1        0.0070
      7 C          63.8364   91.4967   12.0651 C.ar    1  UNL1       -0.0017
      8 C          63.0706   90.8396   10.9553 C.ar    1  UNL1       -0.0002
      9 C          62.7738   89.3705   11.0162 C.ar    1  UNL1        0.0001
     10 C          62.0079   88.7135    9.9063 C.ar    1  UNL1        0.0045
     11 C          60.8882   85.0355    6.7745 C.3     1  UNL1        0.1109
     12 N          61.6540   85.6925    7.8843 N.am    1  UNL1       -0.2992
     13 C          60.9452   86.5874    8.8573 C.2     1  UNL1        0.2459
     14 O          59.4706   86.8252    8.7205 O.2     1  UNL1       -0.2701
     15 H          62.6219   85.5364    7.9741 H       1  UNL1        0.1498
     16 C          65.0714   91.3416   14.3457 C.3     1  UNL1        0.1410
     17 O          64.3231   90.5166   15.3505 O.3     1  UNL1       -0.3771
     18 H          63.6949   89.9381   14.8904 H       1  UNL1        0.2112
     19 C          65.8196   92.1666   13.3410 C.ar    1  UNL1        0.0825
     20 C          66.9420   91.6887   12.4683 C.ar    1  UNL1        0.1157
     21 N          67.3929   92.8411   11.6205 N.ar    1  UNL1       -0.2228
     22 C          66.5491   94.0312   11.9693 C.ar    1  UNL1        0.1749
     23 N          65.5767   93.6142   13.0326 N.ar    1  UNL1       -0.3361
     24 H          64.8982   94.1897   13.4541 H       1  UNL1        0.1673
     25 C          65.8372   91.9986   15.4556 C.3     1  UNL1        0.0340
     26 C          65.1034   92.6455   16.5926 C.3     1  UNL1        0.0031
     27 C          67.3370   92.0087   15.4283 C.3     1  UNL1        0.0031
@<TRIPOS>BOND
     1    11    12    1
     2    12    13   am
     3    13    14    2
     4    13     1    1
     5     1     2   ar
     6     2     3   ar
     7     3     4   ar
     8     4     5   ar
     9     5     6   ar
    10     6    16    1
    11    16    17    1
    12    16    19    1
    13    19    20   ar
    14    20    21   ar
    15    21    22   ar
    16    22    23   ar
    17    16    25    1
    18    25    26    1
    19    25    27    1
    20     6     7   ar
    21     7     8   ar
    22     8     9   ar
    23     9    10   ar
    24    10     1   ar
    25     9     4   ar
    26    23    19   ar
    27    12    15    1
    28    17    18    1
    29    23    24    1
@<TRIPOS>MOLECULE
*****
 27 29 0 0 0
SMALL
GASTEIGER

@<TRIPOS>ATOM
      1 C          63.1363   82.3732   12.3036 C.ar    1  UNL1        0.0534
      2 C          63.8892   82.5928   13.5822 C.ar    1  UNL1        0.0045
      3 C          64.1563   83.9876   14.0651 C.ar    1  UNL1        0.0001
      4 C          63.6705   85.1627   13.2695 C.ar    1  UNL1       -0.0002
      5 C          63.9375   86.5575   13.7525 C.ar    1  UNL1       -0.0017
      6 C          63.4517   87.7326   12.9569 C.ar    1  UNL1        0.0070
      7 C          62.6988   87.5130   11.6782 C.ar    1  UNL1       -0.0017
      8 C          62.4317   86.1182   11.1953 C.ar    1  UNL1       -0.0002
      9 C          62.9176   84.9430   11.9909 C.ar    1  UNL1        0.0001
     10 C          62.6505   83.5483   11.5080 C.ar    1  UNL1        0.0045
     11 C          62.7992   79.2403    9.8908 C.3     1  UNL1        0.1109
     12 N          63.0663   80.6351   10.3738 N.am    1  UNL1       -0.2992
     13 C          62.8692   80.9784   11.8206 C.2     1  UNL1        0.2459
     14 O          62.4052   79.9269   12.7844 O.2     1  UNL1       -0.2701
     15 H          63.3709   81.3252    9.7412 H       1  UNL1        0.1498
     16 C          63.7188   89.1274   13.4399 C.3     1  UNL1        0.1410
     17 O          64.7162   88.5950   14.4257 O.3     1  UNL1       -0.3771
     18 H          64.7683   87.6299   14.3437 H       1  UNL1        0.2112
     19 C          62.7214   89.6597   12.4541 C.ar    1  UNL1        0.0825
     20 C          63.0125   90.0756   11.0427 C.ar    1  UNL1        0.1157
     21 N          61.7288   90.5425   10.4229 N.ar    1  UNL1       -0.2228
     22 C          60.6444   90.4152   11.4513 C.ar    1  UNL1        0.1749
     23 N          61.2579   89.8696   12.7067 N.ar    1  UNL1       -0.3361
     24 H          60.7832   89.6822   13.5486 H       1  UNL1        0.1673
     25 C          63.9858   90.5221   13.9229 C.3     1  UNL1        0.0340
     26 C          63.6954   90.8910   15.3475 C.3     1  UNL1        0.0031
     27 C          64.5434   91.5481   12.9812 C.3     1  UNL1        0.0031
@<TRIPOS>BOND
     1    11    12    1
     2    12    13   am
     3    13    14    2
     4    13     1    1
     5     1     2   ar
     6     2     3   ar
     7     3     4   ar
     8     4     5   ar
     9     5     6   ar
    10     6    16    1
    11    16    17    1
    12    16    19    1
    13    19    20   ar
    14    20    21   ar
    15    21    22   ar
    16    22    23   ar
    17    16    25    1
    18    25    26    1
    19    25    27    1
    20     6     7   ar
    21     7     8   ar
    22     8     9   ar
    23     9    10   ar
    24    10     1   ar
    25     9     4   ar
    26    23    19   ar
    27    12    15    1
    28    17    18    1
    29    23    24    1
@<TRIPOS>MOLECULE
*****
 27 29 0 0 0
SMALL
GASTEIGER

@<TRIPOS>ATOM
      1 C          62.1219   87.6702   10.0898 C.ar    1  UNL1        0.0534
      2 C          62.1097   89.1233    9.7176 C.ar    1  UNL1        0.0045
      3 C          62.6653   90.1448   10.6651 C.ar    1  UNL1        0.0001
      4 C          63.2331   89.7134   11.9847 C.ar    1  UNL1       -0.0002
      5 C          63.7886   90.7350   12.9322 C.ar    1  UNL1       -0.0017
      6 C          64.3564   90.3036   14.2518 C.ar    1  UNL1        0.0070
      7 C          64.3686   88.8505   14.6240 C.ar    1  UNL1       -0.0017
      8 C          63.8131   87.8289   13.6765 C.ar    1  UNL1       -0.0002
      9 C          63.2453   88.2604   12.3569 C.ar    1  UNL1        0.0001
     10 C          62.6897   87.2388   11.4094 C.ar    1  UNL1        0.0045
     11 C          59.7779   85.9353    7.3981 C.3     1  UNL1        0.1109
     12 N          60.3334   86.9569    8.3456 N.am    1  UNL1       -0.2992
     13 C          61.5664   86.6487    9.1423 C.2     1  UNL1        0.2459
     14 O          62.2438   85.3189    8.9915 O.2     1  UNL1       -0.2701
     15 H          59.8888   87.8296    8.4445 H       1  UNL1        0.1498
     16 C          64.9119   91.3252   15.1993 C.3     1  UNL1        0.1410
     17 O          63.7736   91.0697   16.1422 O.3     1  UNL1       -0.3771
     18 H          63.1896   90.3918   15.7677 H       1  UNL1        0.2112
     19 C          66.0502   91.5806   14.2564 C.ar    1  UNL1        0.0825
     20 C          66.0127   92.4706   13.0496 C.ar    1  UNL1        0.1157
     21 N          67.3652   92.4310   12.4022 N.ar    1  UNL1       -0.2228
     22 C          68.2386   91.5164   13.2089 C.ar    1  UNL1        0.1749
     23 N          67.4259   90.9909   14.3549 N.ar    1  UNL1       -0.3361
     24 H          67.7402   90.3682   15.0496 H       1  UNL1        0.1673
     25 C          65.4675   92.3467   16.1468 C.3     1  UNL1        0.0340
     26 C          66.7684   93.0267   15.8382 C.3     1  UNL1        0.0031
     27 C          64.7221   92.6884   17.4029 C.3     1  UNL1        0.0031
@<TRIPOS>BOND
     1    11    12    1
     2    12    13   am
     3    13    14    2
     4    13     1    1
     5     1     2   ar
     6     2     3   ar
     7     3     4   ar
     8     4     5   ar
     9     5     6   ar
    10     6    16    1
    11    16    17    1
    12    16    19    1
    13    19    20   ar
    14    20    21   ar
    15    21    22   ar
    16    22    23   ar
    17    16    25    1
    18    25    26    1
    19    25    27    1
    20     6     7   ar
    21     7     8   ar
    22     8     9   ar
    23     9    10   ar
    24    10     1   ar
    25     9     4   ar
    26    23    19   ar
    27    12    15    1
    28    17    18    1
    29    23    24    1
