@<TRIPOS>MOLECULE
*****
 36 39 0 0 0
SMALL
GASTEIGER

@<TRIPOS>ATOM
      1 C          59.6144   88.8442    7.5346 C.ar    1  UNL1       -0.0024
      2 C          59.1942   87.4082    7.4270 C.ar    1  UNL1       -0.0026
      3 C          59.7023   86.4019    8.4165 C.ar    1  UNL1       -0.0001
      4 C          60.6306   86.8315    9.5137 C.ar    1  UNL1        0.0045
      5 C          61.0507   88.2675    9.6213 C.ar    1  UNL1        0.0534
      6 C          60.5426   89.2738    8.6318 C.ar    1  UNL1        0.0019
      7 C          61.9789   88.6971   10.7185 C.2     1  UNL1        0.2495
      8 O          62.5640   87.6761   11.6487 O.2     1  UNL1       -0.2698
      9 N          62.3221   90.1477   10.8854 N.am    1  UNL1       -0.2804
     10 H          61.9381   90.8178   10.2749 H       1  UNL1        0.1552
     11 C          63.2503   90.5774   11.9826 C.ar    1  UNL1        0.0502
     12 C          63.1319   89.9665   13.3475 C.ar    1  UNL1        0.0143
     13 C          64.0601   90.3961   14.4446 C.ar    1  UNL1       -0.0032
     14 C          65.1068   91.4367   14.1770 C.ar    1  UNL1       -0.0234
     15 C          65.2252   92.0477   12.8122 C.ar    1  UNL1       -0.0091
     16 C          64.2970   91.6180   11.7150 C.ar    1  UNL1        0.0114
     17 C          66.2719   93.0883   12.5446 C.3     1  UNL1        0.0954
     18 N          67.2001   93.5179   13.6417 N.3     1  UNL1       -0.2935
     19 C          67.0816   92.9070   15.0065 C.3     1  UNL1        0.0735
     20 C          66.0350   91.8664   15.2742 C.3     1  UNL1        0.0432
     21 H          67.0738   94.5235   13.7573 H       1  UNL1        0.1236
     22 C          59.1063   89.8505    6.5451 C.3     1  UNL1        0.1166
     23 C          59.5777   91.5857    4.6698 C.2     1  UNL1        0.2462
     24 O          58.1681   92.0867    4.7790 O.2     1  UNL1       -0.2701
     25 N          60.0468   90.4676    5.5528 N.am    1  UNL1       -0.2969
     26 H          60.9720   90.1388    5.4812 H       1  UNL1        0.1501
     27 C          62.3993   93.4371    1.6930 C.ar    1  UNL1        0.1724
     28 C          62.8677   92.3174    2.5745 C.ar    1  UNL1        0.0402
     29 C          61.9272   91.7003    3.5667 C.ar    1  UNL1        0.0078
     30 C          60.5182   92.2029    3.6775 C.ar    1  UNL1        0.0566
     31 C          60.0498   93.3225    2.7961 C.ar    1  UNL1        0.0446
     32 C          60.9903   93.9396    1.8039 C.ar    1  UNL1        0.1725
     33 C          64.7824   93.6438    0.6791 C.3     1  UNL1        0.2526
     34 O          63.3398   94.0542    0.7008 O.3     1  UNL1       -0.4684
     35 O          60.5218   95.0593    0.9224 O.3     1  UNL1       -0.4684
     36 C          59.2377   94.9257    0.1588 C.3     1  UNL1        0.2526
@<TRIPOS>BOND
     1    33    34    1
     2    34    27    1
     3    27    28   ar
     4    28    29   ar
     5    29    30   ar
     6    30    23    1
     7    23    24    2
     8    23    25   am
     9    25    22    1
    10    22     1    1
    11     1     2   ar
    12     2     3   ar
    13     3     4   ar
    14     4     5   ar
    15     5     7    1
    16     7     8    2
    17     7     9   am
    18     9    11    1
    19    11    12   ar
    20    12    13   ar
    21    13    14   ar
    22    14    15   ar
    23    15    16   ar
    24    15    17    1
    25    17    18    1
    26    18    19    1
    27    19    20    1
    28     5     6   ar
    29    30    31   ar
    30    31    32   ar
    31    32    35    1
    32    35    36    1
    33    32    27   ar
    34     6     1   ar
    35    16    11   ar
    36    20    14    1
    37    25    26    1
    38     9    10    1
    39    18    21    1
@<TRIPOS>MOLECULE
*****
 36 39 0 0 0
SMALL
GASTEIGER

@<TRIPOS>ATOM
      1 C          63.8820   85.9545   15.6618 C.ar    1  UNL1       -0.0024
      2 C          63.2138   85.8399   16.9999 C.ar    1  UNL1       -0.0026
      3 C          62.8422   87.0778   17.7612 C.ar    1  UNL1       -0.0001
      4 C          63.1388   88.4303   17.1843 C.ar    1  UNL1        0.0045
      5 C          63.8069   88.5449   15.8462 C.ar    1  UNL1        0.0534
      6 C          64.1785   87.3070   15.0850 C.ar    1  UNL1        0.0019
      7 C          64.1035   89.8974   15.2694 C.2     1  UNL1        0.2495
      8 O          63.1673   91.0420   15.5214 O.2     1  UNL1       -0.2698
      9 N          65.3363   90.1053   14.4406 N.am    1  UNL1       -0.2804
     10 H          65.9507   89.3541   14.2752 H       1  UNL1        0.1552
     11 C          65.6329   91.4579   13.8637 C.ar    1  UNL1        0.0502
     12 C          66.2633   92.5164   14.7193 C.ar    1  UNL1        0.0143
     13 C          66.5600   93.8688   14.1425 C.ar    1  UNL1       -0.0032
     14 C          66.2261   94.1629   12.7100 C.ar    1  UNL1       -0.0234
     15 C          65.5957   93.1044   11.8543 C.ar    1  UNL1       -0.0091
     16 C          65.2990   91.7519   12.4312 C.ar    1  UNL1        0.0114
     17 C          65.2618   93.3984   10.4218 C.3     1  UNL1        0.0954
     18 N          65.5584   94.7509    9.8450 N.3     1  UNL1       -0.2935
     19 C          66.1889   95.8094   10.7007 C.3     1  UNL1        0.0735
     20 C          66.5227   95.5154   12.1331 C.3     1  UNL1        0.0432
     21 H          64.6718   95.1303    9.5129 H       1  UNL1        0.1236
     22 C          64.2535   84.7166   14.9006 C.3     1  UNL1        0.1166
     23 C          62.9062   84.8582   12.6837 C.2     1  UNL1        0.2462
     24 O          61.6337   84.9955   13.4658 O.2     1  UNL1       -0.2701
     25 N          64.2162   84.7187   13.4011 N.am    1  UNL1       -0.2969
     26 H          65.0514   84.6286   12.8877 H       1  UNL1        0.1501
     27 C          62.7941   84.8645    8.1851 C.ar    1  UNL1        0.1724
     28 C          63.6473   83.8681    8.9127 C.ar    1  UNL1        0.0402
     29 C          63.6847   83.8660   10.4122 C.ar    1  UNL1        0.0078
     30 C          62.8688   84.8603   11.1842 C.ar    1  UNL1        0.0566
     31 C          62.0156   85.8566   10.4566 C.ar    1  UNL1        0.0446
     32 C          61.9783   85.8587    8.9570 C.ar    1  UNL1        0.1725
     33 C          61.6480   84.1613    5.9620 C.3     1  UNL1        0.2526
     34 O          62.7567   84.8666    6.6856 O.3     1  UNL1       -0.4684
     35 O          61.1250   86.8551    8.2295 O.3     1  UNL1       -0.4684
     36 C          59.6812   86.5509    7.9599 C.3     1  UNL1        0.2526
@<TRIPOS>BOND
     1    33    34    1
     2    34    27    1
     3    27    28   ar
     4    28    29   ar
     5    29    30   ar
     6    30    23    1
     7    23    24    2
     8    23    25   am
     9    25    22    1
    10    22     1    1
    11     1     2   ar
    12     2     3   ar
    13     3     4   ar
    14     4     5   ar
    15     5     7    1
    16     7     8    2
    17     7     9   am
    18     9    11    1
    19    11    12   ar
    20    12    13   ar
    21    13    14   ar
    22    14    15   ar
    23    15    16   ar
    24    15    17    1
    25    17    18    1
    26    18    19    1
    27    19    20    1
    28     5     6   ar
    29    30    31   ar
    30    31    32   ar
    31    32    35    1
    32    35    36    1
    33    32    27   ar
    34     6     1   ar
    35    16    11   ar
    36    20    14    1
    37    25    26    1
    38     9    10    1
    39    18    21    1
@<TRIPOS>MOLECULE
*****
 36 39 0 0 0
SMALL
GASTEIGER

@<TRIPOS>ATOM
      1 C          63.9058   87.7226   15.7426 C.ar    1  UNL1       -0.0024
      2 C          63.2100   88.4337   16.8652 C.ar    1  UNL1       -0.0026
      3 C          62.9913   89.9159   16.7930 C.ar    1  UNL1       -0.0001
      4 C          63.4686   90.6871   15.5981 C.ar    1  UNL1        0.0045
      5 C          64.1644   89.9760   14.4756 C.ar    1  UNL1        0.0534
      6 C          64.3831   88.4937   14.5478 C.ar    1  UNL1        0.0019
      7 C          64.6417   90.7471   13.2808 C.2     1  UNL1        0.2495
      8 O          63.9171   90.6280   11.9728 O.2     1  UNL1       -0.2698
      9 N          65.8435   91.6374   13.3940 N.am    1  UNL1       -0.2804
     10 H          66.3191   91.7157   14.2524 H       1  UNL1        0.1552
     11 C          66.3208   92.4086   12.1991 C.ar    1  UNL1        0.0502
     12 C          67.4092   91.8495   11.3315 C.ar    1  UNL1        0.0143
     13 C          67.8865   92.6206   10.1367 C.ar    1  UNL1       -0.0032
     14 C          67.2755   93.9509    9.8095 C.ar    1  UNL1       -0.0234
     15 C          66.1871   94.5101   10.6772 C.ar    1  UNL1       -0.0091
     16 C          65.7098   93.7389   11.8720 C.ar    1  UNL1        0.0114
     17 C          65.5761   95.8403   10.3501 C.3     1  UNL1        0.0954
     18 N          66.0534   96.6114    9.1554 N.3     1  UNL1       -0.2935
     19 C          67.1417   96.0523    8.2877 C.3     1  UNL1        0.0735
     20 C          67.7528   94.7220    8.6148 C.3     1  UNL1        0.0432
     21 H          66.3850   97.5125    9.4997 H       1  UNL1        0.1236
     22 C          64.1245   86.2404   15.8149 C.3     1  UNL1        0.1166
     23 C          63.5304   83.9846   14.6709 C.2     1  UNL1        0.2462
     24 O          63.1711   83.4023   16.0058 O.2     1  UNL1       -0.2701
     25 N          64.0071   85.4037   14.5755 N.am    1  UNL1       -0.2969
     26 H          64.2429   85.7859   13.6993 H       1  UNL1        0.1501
     27 C          63.1782   81.4744   10.9528 C.ar    1  UNL1        0.1724
     28 C          62.8618   80.8787   12.2926 C.ar    1  UNL1        0.0402
     29 C          62.9792   81.7155   13.5320 C.ar    1  UNL1        0.0078
     30 C          63.4130   83.1479   13.4316 C.ar    1  UNL1        0.0566
     31 C          63.7294   83.7435   12.0918 C.ar    1  UNL1        0.0446
     32 C          63.6119   82.9068   10.8524 C.ar    1  UNL1        0.1725
     33 C          62.8020   79.1644    9.8248 C.3     1  UNL1        0.2526
     34 O          63.0608   80.6377    9.7134 O.3     1  UNL1       -0.4684
     35 O          63.9284   83.5025    9.5125 O.3     1  UNL1       -0.4684
     36 C          63.2066   84.7332    9.0496 C.3     1  UNL1        0.2526
@<TRIPOS>BOND
     1    33    34    1
     2    34    27    1
     3    27    28   ar
     4    28    29   ar
     5    29    30   ar
     6    30    23    1
     7    23    24    2
     8    23    25   am
     9    25    22    1
    10    22     1    1
    11     1     2   ar
    12     2     3   ar
    13     3     4   ar
    14     4     5   ar
    15     5     7    1
    16     7     8    2
    17     7     9   am
    18     9    11    1
    19    11    12   ar
    20    12    13   ar
    21    13    14   ar
    22    14    15   ar
    23    15    16   ar
    24    15    17    1
    25    17    18    1
    26    18    19    1
    27    19    20    1
    28     5     6   ar
    29    30    31   ar
    30    31    32   ar
    31    32    35    1
    32    35    36    1
    33    32    27   ar
    34     6     1   ar
    35    16    11   ar
    36    20    14    1
    37    25    26    1
    38     9    10    1
    39    18    21    1
@<TRIPOS>MOLECULE
*****
 36 39 0 0 0
SMALL
GASTEIGER

@<TRIPOS>ATOM
      1 C          59.9911   88.7838   10.1028 C.ar    1  UNL1       -0.0024
      2 C          59.9629   87.2934    9.9352 C.ar    1  UNL1       -0.0026
      3 C          59.8375   86.6950    8.5654 C.ar    1  UNL1       -0.0001
      4 C          59.7404   87.5870    7.3633 C.ar    1  UNL1        0.0045
      5 C          59.7686   89.0773    7.5310 C.ar    1  UNL1        0.0534
      6 C          59.8939   89.6757    8.9008 C.ar    1  UNL1        0.0019
      7 C          59.6714   89.9693    6.3289 C.2     1  UNL1        0.2495
      8 O          58.3300   90.2887    5.7385 O.2     1  UNL1       -0.2698
      9 N          60.9156   90.5417    5.7173 N.am    1  UNL1       -0.2804
     10 H          61.7960   90.3321    6.1049 H       1  UNL1        0.1552
     11 C          60.8185   91.4337    4.5152 C.ar    1  UNL1        0.0502
     12 C          59.5262   92.1258    4.1973 C.ar    1  UNL1        0.0143
     13 C          59.4291   93.0178    2.9953 C.ar    1  UNL1       -0.0032
     14 C          60.6242   93.2177    2.1111 C.ar    1  UNL1       -0.0234
     15 C          61.9165   92.5256    2.4290 C.ar    1  UNL1       -0.0091
     16 C          62.0136   91.6336    3.6311 C.ar    1  UNL1        0.0114
     17 C          63.1116   92.7254    1.5448 C.3     1  UNL1        0.0954
     18 N          63.0144   93.6174    0.3428 N.3     1  UNL1       -0.2935
     19 C          61.7221   94.3095    0.0249 C.3     1  UNL1        0.0735
     20 C          60.5271   94.1096    0.9090 C.3     1  UNL1        0.0432
     21 H          63.2492   93.0451   -0.4682 H       1  UNL1        0.1236
     22 C          60.1164   89.3822   11.4725 C.3     1  UNL1        0.1166
     23 C          62.5974   89.6756   12.1858 C.2     1  UNL1        0.2462
     24 O          62.7558   88.1853   12.2482 O.2     1  UNL1       -0.2701
     25 N          61.2777   90.2740   11.7980 N.am    1  UNL1       -0.2969
     26 H          61.1738   91.2522   11.7570 H       1  UNL1        0.1501
     27 C          66.0814   92.3513   13.1620 C.ar    1  UNL1        0.1724
     28 C          65.6573   91.2882   14.1317 C.ar    1  UNL1        0.0402
     29 C          64.4960   90.3963   13.8063 C.ar    1  UNL1        0.0078
     30 C          63.7587   90.5675   12.5112 C.ar    1  UNL1        0.0566
     31 C          64.1828   91.6305   11.5416 C.ar    1  UNL1        0.0446
     32 C          65.3441   92.5224   11.8670 C.ar    1  UNL1        0.1725
     33 C          67.6848   93.4094   14.9112 C.3     1  UNL1        0.2526
     34 O          67.2427   93.2432   13.4874 O.3     1  UNL1       -0.4684
     35 O          65.7681   93.5854   10.8973 O.3     1  UNL1       -0.4684
     36 C          66.9894   93.3839   10.0502 C.3     1  UNL1        0.2526
@<TRIPOS>BOND
     1    33    34    1
     2    34    27    1
     3    27    28   ar
     4    28    29   ar
     5    29    30   ar
     6    30    23    1
     7    23    24    2
     8    23    25   am
     9    25    22    1
    10    22     1    1
    11     1     2   ar
    12     2     3   ar
    13     3     4   ar
    14     4     5   ar
    15     5     7    1
    16     7     8    2
    17     7     9   am
    18     9    11    1
    19    11    12   ar
    20    12    13   ar
    21    13    14   ar
    22    14    15   ar
    23    15    16   ar
    24    15    17    1
    25    17    18    1
    26    18    19    1
    27    19    20    1
    28     5     6   ar
    29    30    31   ar
    30    31    32   ar
    31    32    35    1
    32    35    36    1
    33    32    27   ar
    34     6     1   ar
    35    16    11   ar
    36    20    14    1
    37    25    26    1
    38     9    10    1
    39    18    21    1
@<TRIPOS>MOLECULE
*****
 36 39 0 0 0
SMALL
GASTEIGER

@<TRIPOS>ATOM
      1 C          61.4190   88.1914    9.4256 C.ar    1  UNL1       -0.0024
      2 C          60.0599   88.8203    9.3403 C.ar    1  UNL1       -0.0026
      3 C          59.7798   90.1023   10.0669 C.ar    1  UNL1       -0.0001
      4 C          60.8588   90.7553   10.8790 C.ar    1  UNL1        0.0045
      5 C          62.2179   90.1264   10.9643 C.ar    1  UNL1        0.0534
      6 C          62.4980   88.8443   10.2376 C.ar    1  UNL1        0.0019
      7 C          63.2968   90.7794   11.7763 C.2     1  UNL1        0.2495
      8 O          64.2014   91.7947   11.1433 O.2     1  UNL1       -0.2698
      9 N          63.4712   90.4170   13.2214 N.am    1  UNL1       -0.2804
     10 H          62.8774   89.7506   13.6369 H       1  UNL1        0.1552
     11 C          64.5502   91.0700   14.0335 C.ar    1  UNL1        0.0502
     12 C          64.2513   91.5655   15.4174 C.ar    1  UNL1        0.0143
     13 C          65.3303   92.2185   16.2295 C.ar    1  UNL1       -0.0032
     14 C          66.7081   92.3760   15.6577 C.ar    1  UNL1       -0.0234
     15 C          67.0069   91.8805   14.2738 C.ar    1  UNL1       -0.0091
     16 C          65.9279   91.2275   13.4617 C.ar    1  UNL1        0.0114
     17 C          68.3846   92.0379   13.7019 C.3     1  UNL1        0.0954
     18 N          69.4635   92.6909   14.5140 N.3     1  UNL1       -0.2935
     19 C          69.1647   93.1864   15.8979 C.3     1  UNL1        0.0735
     20 C          67.7870   93.0290   16.4697 C.3     1  UNL1        0.0432
     21 H          69.7902   93.4946   13.9776 H       1  UNL1        0.1236
     22 C          61.6991   86.9094    8.6989 C.3     1  UNL1        0.1166
     23 C          61.8696   85.5516   10.9075 C.2     1  UNL1        0.2462
     24 O          61.0376   86.5851   11.6071 O.2     1  UNL1       -0.2701
     25 N          62.2004   85.7138    9.4533 N.am    1  UNL1       -0.2969
     26 H          62.7465   85.0354    8.9941 H       1  UNL1        0.1501
     27 C          63.3735   81.9647   13.1707 C.ar    1  UNL1        0.1724
     28 C          63.3005   81.9299   11.6728 C.ar    1  UNL1        0.0402
     29 C          62.7992   83.1255   10.9184 C.ar    1  UNL1        0.0078
     30 C          62.3709   84.3560   11.6619 C.ar    1  UNL1        0.0566
     31 C          62.4440   84.3907   13.1596 C.ar    1  UNL1        0.0446
     32 C          62.9453   83.1951   13.9140 C.ar    1  UNL1        0.1725
     33 C          63.0180   79.5434   14.0432 C.3     1  UNL1        0.2526
     34 O          63.8748   80.7690   13.9251 O.3     1  UNL1       -0.4684
     35 O          63.0184   83.2299   15.4119 O.3     1  UNL1       -0.4684
     36 C          62.5647   84.4502   16.1568 C.3     1  UNL1        0.2526
@<TRIPOS>BOND
     1    33    34    1
     2    34    27    1
     3    27    28   ar
     4    28    29   ar
     5    29    30   ar
     6    30    23    1
     7    23    24    2
     8    23    25   am
     9    25    22    1
    10    22     1    1
    11     1     2   ar
    12     2     3   ar
    13     3     4   ar
    14     4     5   ar
    15     5     7    1
    16     7     8    2
    17     7     9   am
    18     9    11    1
    19    11    12   ar
    20    12    13   ar
    21    13    14   ar
    22    14    15   ar
    23    15    16   ar
    24    15    17    1
    25    17    18    1
    26    18    19    1
    27    19    20    1
    28     5     6   ar
    29    30    31   ar
    30    31    32   ar
    31    32    35    1
    32    35    36    1
    33    32    27   ar
    34     6     1   ar
    35    16    11   ar
    36    20    14    1
    37    25    26    1
    38     9    10    1
    39    18    21    1
@<TRIPOS>MOLECULE
*****
 36 39 0 0 0
SMALL
GASTEIGER

@<TRIPOS>ATOM
      1 C          59.1749   90.0635    6.3953 C.ar    1  UNL1       -0.0024
      2 C          57.6829   90.0934    6.2432 C.ar    1  UNL1       -0.0026
      3 C          57.0548   90.9380    5.1745 C.ar    1  UNL1       -0.0001
      4 C          57.9186   91.7527    4.2580 C.ar    1  UNL1        0.0045
      5 C          59.4105   91.7229    4.4101 C.ar    1  UNL1        0.0534
      6 C          60.0387   90.8782    5.4788 C.ar    1  UNL1        0.0019
      7 C          60.2743   92.5376    3.4936 C.2     1  UNL1        0.2495
      8 O          59.8899   93.9480    3.1576 O.2     1  UNL1       -0.2698
      9 N          61.5225   91.9418    2.9130 N.am    1  UNL1       -0.2804
     10 H          61.7748   91.0161    3.1336 H       1  UNL1        0.1552
     11 C          62.3864   92.7566    1.9965 C.ar    1  UNL1        0.0502
     12 C          63.6507   93.3773    2.5125 C.ar    1  UNL1        0.0143
     13 C          64.5146   94.1920    1.5960 C.ar    1  UNL1       -0.0032
     14 C          64.1142   94.3860    0.1634 C.ar    1  UNL1       -0.0234
     15 C          62.8499   93.7652   -0.3525 C.ar    1  UNL1       -0.0091
     16 C          61.9860   92.9505    0.5640 C.ar    1  UNL1        0.0114
     17 C          62.4495   93.9592   -1.7850 C.3     1  UNL1        0.0954
     18 N          63.3133   94.7739   -2.7015 N.3     1  UNL1       -0.2935
     19 C          64.5776   95.3946   -2.1855 C.3     1  UNL1        0.0735
     20 C          64.9780   95.2007   -0.7530 C.3     1  UNL1        0.0432
     21 H          62.7333   95.5358   -3.0528 H       1  UNL1        0.1236
     22 C          59.8031   89.2189    7.4639 C.3     1  UNL1        0.1166
     23 C          61.5061   89.0238    9.4163 C.2     1  UNL1        0.2462
     24 O          61.5819   87.5411    9.2020 O.2     1  UNL1       -0.2701
     25 N          60.6167   89.8627    8.5472 N.am    1  UNL1       -0.2969
     26 H          60.5670   90.8358    8.6878 H       1  UNL1        0.1501
     27 C          63.9470   90.9551   12.6662 C.ar    1  UNL1        0.1724
     28 C          63.8610   91.5948   11.3121 C.ar    1  UNL1        0.0402
     29 C          63.0474   90.9511   10.2288 C.ar    1  UNL1        0.0078
     30 C          62.3198   89.6675   10.4996 C.ar    1  UNL1        0.0566
     31 C          62.4058   89.0279   11.8536 C.ar    1  UNL1        0.0446
     32 C          63.2194   89.6717   12.9369 C.ar    1  UNL1        0.1725
     33 C          65.8722   92.5411   13.3932 C.3     1  UNL1        0.2526
     34 O          64.7607   91.5989   13.7494 O.3     1  UNL1       -0.4684
     35 O          63.3055   89.0320   14.2910 O.3     1  UNL1       -0.4684
     36 C          64.3617   88.0039   14.5690 C.3     1  UNL1        0.2526
@<TRIPOS>BOND
     1    33    34    1
     2    34    27    1
     3    27    28   ar
     4    28    29   ar
     5    29    30   ar
     6    30    23    1
     7    23    24    2
     8    23    25   am
     9    25    22    1
    10    22     1    1
    11     1     2   ar
    12     2     3   ar
    13     3     4   ar
    14     4     5   ar
    15     5     7    1
    16     7     8    2
    17     7     9   am
    18     9    11    1
    19    11    12   ar
    20    12    13   ar
    21    13    14   ar
    22    14    15   ar
    23    15    16   ar
    24    15    17    1
    25    17    18    1
    26    18    19    1
    27    19    20    1
    28     5     6   ar
    29    30    31   ar
    30    31    32   ar
    31    32    35    1
    32    35    36    1
    33    32    27   ar
    34     6     1   ar
    35    16    11   ar
    36    20    14    1
    37    25    26    1
    38     9    10    1
    39    18    21    1
@<TRIPOS>MOLECULE
*****
 36 39 0 0 0
SMALL
GASTEIGER

@<TRIPOS>ATOM
      1 C          60.3271   92.1871    3.3250 C.ar    1  UNL1       -0.0024
      2 C          61.8141   91.9919    3.3025 C.ar    1  UNL1       -0.0026
      3 C          62.5813   92.2191    2.0337 C.ar    1  UNL1       -0.0001
      4 C          61.8614   92.6416    0.7874 C.ar    1  UNL1        0.0045
      5 C          60.3743   92.8369    0.8099 C.ar    1  UNL1        0.0534
      6 C          59.6072   92.6096    2.0787 C.ar    1  UNL1        0.0019
      7 C          59.6544   93.2594   -0.4364 C.2     1  UNL1        0.2495
      8 O          60.1712   94.4106   -1.2473 O.2     1  UNL1       -0.2698
      9 N          58.4177   92.5307   -0.8716 N.am    1  UNL1       -0.2804
     10 H          58.0785   91.7751   -0.3394 H       1  UNL1        0.1552
     11 C          57.6977   92.9532   -2.1180 C.ar    1  UNL1        0.0502
     12 C          58.0258   92.3045   -3.4300 C.ar    1  UNL1        0.0143
     13 C          57.3059   92.7269   -4.6763 C.ar    1  UNL1       -0.0032
     14 C          56.2578   93.7981   -4.6105 C.ar    1  UNL1       -0.0234
     15 C          55.9297   94.4467   -3.2984 C.ar    1  UNL1       -0.0091
     16 C          56.6497   94.0243   -2.0521 C.ar    1  UNL1        0.0114
     17 C          54.8817   95.5178   -3.2326 C.3     1  UNL1        0.0954
     18 N          54.1618   95.9403   -4.4789 N.3     1  UNL1       -0.2935
     19 C          54.4899   95.2916   -5.7910 C.3     1  UNL1        0.0735
     20 C          55.5379   94.2205   -5.8568 C.3     1  UNL1        0.0432
     21 H          54.3328   96.9393   -4.5934 H       1  UNL1        0.1236
     22 C          59.5599   91.9599    4.5937 C.3     1  UNL1        0.1166
     23 C          59.0494   90.0455    6.2744 C.2     1  UNL1        0.2462
     24 O          57.5858   90.1688    5.9703 O.2     1  UNL1       -0.2701
     25 N          60.0365   90.9411    5.5861 N.am    1  UNL1       -0.2969
     26 H          60.9972   90.8602    5.7857 H       1  UNL1        0.1501
     27 C          60.4792   86.9891    9.2516 C.ar    1  UNL1        0.1724
     28 C          59.7588   86.5486    8.0118 C.ar    1  UNL1        0.0402
     29 C          59.2822   87.5674    7.0194 C.ar    1  UNL1        0.0078
     30 C          59.5260   89.0267    7.2668 C.ar    1  UNL1        0.0566
     31 C          60.2464   89.4671    8.5066 C.ar    1  UNL1        0.0446
     32 C          60.7230   88.4483    9.4990 C.ar    1  UNL1        0.1725
     33 C          62.3824   85.5073   10.2172 C.3     1  UNL1        0.2526
     34 O          60.9558   85.9703   10.2440 O.3     1  UNL1       -0.4684
     35 O          61.4434   88.8888   10.7388 O.3     1  UNL1       -0.4684
     36 C          60.7234   89.6964   11.7777 C.3     1  UNL1        0.2526
@<TRIPOS>BOND
     1    33    34    1
     2    34    27    1
     3    27    28   ar
     4    28    29   ar
     5    29    30   ar
     6    30    23    1
     7    23    24    2
     8    23    25   am
     9    25    22    1
    10    22     1    1
    11     1     2   ar
    12     2     3   ar
    13     3     4   ar
    14     4     5   ar
    15     5     7    1
    16     7     8    2
    17     7     9   am
    18     9    11    1
    19    11    12   ar
    20    12    13   ar
    21    13    14   ar
    22    14    15   ar
    23    15    16   ar
    24    15    17    1
    25    17    18    1
    26    18    19    1
    27    19    20    1
    28     5     6   ar
    29    30    31   ar
    30    31    32   ar
    31    32    35    1
    32    35    36    1
    33    32    27   ar
    34     6     1   ar
    35    16    11   ar
    36    20    14    1
    37    25    26    1
    38     9    10    1
    39    18    21    1
@<TRIPOS>MOLECULE
*****
 36 39 0 0 0
SMALL
GASTEIGER

@<TRIPOS>ATOM
      1 C          60.3123   88.3902    9.3586 C.ar    1  UNL1       -0.0024
      2 C          59.4721   87.1591    9.1901 C.ar    1  UNL1       -0.0026
      3 C          58.6851   86.9549    7.9296 C.ar    1  UNL1       -0.0001
      4 C          58.7383   87.9819    6.8375 C.ar    1  UNL1        0.0045
      5 C          59.5785   89.2130    7.0060 C.ar    1  UNL1        0.0534
      6 C          60.3655   89.4171    8.2665 C.ar    1  UNL1        0.0019
      7 C          59.6318   90.2399    5.9139 C.2     1  UNL1        0.2495
      8 O          58.3705   90.9036    5.4464 O.2     1  UNL1       -0.2698
      9 N          60.9463   90.6030    5.2894 N.am    1  UNL1       -0.2804
     10 H          61.7741   90.1674    5.5963 H       1  UNL1        0.1552
     11 C          60.9996   91.6300    4.1973 C.ar    1  UNL1        0.0502
     12 C          59.8115   92.5069    3.9338 C.ar    1  UNL1        0.0143
     13 C          59.8647   93.5338    2.8418 C.ar    1  UNL1       -0.0032
     14 C          61.1061   93.6839    2.0132 C.ar    1  UNL1       -0.0234
     15 C          62.2942   92.8070    2.2768 C.ar    1  UNL1       -0.0091
     16 C          62.2409   91.7801    3.3688 C.ar    1  UNL1        0.0114
     17 C          63.5356   92.9571    1.4483 C.3     1  UNL1        0.0954
     18 N          63.5888   93.9840    0.3562 N.3     1  UNL1       -0.2935
     19 C          62.4007   94.8609    0.0927 C.3     1  UNL1        0.0735
     20 C          61.1594   94.7108    0.9212 C.3     1  UNL1        0.0432
     21 H          63.7826   93.4824   -0.5105 H       1  UNL1        0.1236
     22 C          61.0993   88.5944   10.6191 C.3     1  UNL1        0.1166
     23 C          62.2499   86.2791   10.8754 C.2     1  UNL1        0.2462
     24 O          62.6536   86.3199    9.4313 O.2     1  UNL1       -0.2701
     25 N          61.4727   87.4164   11.4693 N.am    1  UNL1       -0.2969
     26 H          61.2077   87.3897   12.4171 H       1  UNL1        0.1501
     27 C          63.3701   82.7451   13.4260 C.ar    1  UNL1        0.1724
     28 C          63.0084   82.5448   11.9841 C.ar    1  UNL1        0.0402
     29 C          62.6350   83.7228   11.1338 C.ar    1  UNL1        0.0078
     30 C          62.6233   85.1011   11.7256 C.ar    1  UNL1        0.0566
     31 C          62.9850   85.3014   13.1674 C.ar    1  UNL1        0.0446
     32 C          63.3584   84.1234   14.0177 C.ar    1  UNL1        0.1725
     33 C          63.2059   80.2055   13.9489 C.3     1  UNL1        0.2526
     34 O          63.7435   81.5671   14.2762 O.3     1  UNL1       -0.4684
     35 O          63.7201   84.3237   15.4596 O.3     1  UNL1       -0.4684
     36 C          63.8111   85.7104   16.0243 C.3     1  UNL1        0.2526
@<TRIPOS>BOND
     1    33    34    1
     2    34    27    1
     3    27    28   ar
     4    28    29   ar
     5    29    30   ar
     6    30    23    1
     7    23    24    2
     8    23    25   am
     9    25    22    1
    10    22     1    1
    11     1     2   ar
    12     2     3   ar
    13     3     4   ar
    14     4     5   ar
    15     5     7    1
    16     7     8    2
    17     7     9   am
    18     9    11    1
    19    11    12   ar
    20    12    13   ar
    21    13    14   ar
    22    14    15   ar
    23    15    16   ar
    24    15    17    1
    25    17    18    1
    26    18    19    1
    27    19    20    1
    28     5     6   ar
    29    30    31   ar
    30    31    32   ar
    31    32    35    1
    32    35    36    1
    33    32    27   ar
    34     6     1   ar
    35    16    11   ar
    36    20    14    1
    37    25    26    1
    38     9    10    1
    39    18    21    1
@<TRIPOS>MOLECULE
*****
 36 39 0 0 0
SMALL
GASTEIGER

@<TRIPOS>ATOM
      1 C          60.2710   92.4304    3.2057 C.ar    1  UNL1       -0.0024
      2 C          61.7689   92.3503    3.2110 C.ar    1  UNL1       -0.0026
      3 C          62.5416   92.6745    1.9669 C.ar    1  UNL1       -0.0001
      4 C          61.8166   93.0790    0.7176 C.ar    1  UNL1        0.0045
      5 C          60.3187   93.1591    0.7124 C.ar    1  UNL1        0.0534
      6 C          59.5459   92.8348    1.9565 C.ar    1  UNL1        0.0019
      7 C          59.5936   93.5635   -0.5369 C.2     1  UNL1        0.2495
      8 O          58.6605   94.7377   -0.5157 O.2     1  UNL1       -0.2698
      9 N          59.8016   92.7936   -1.8073 N.am    1  UNL1       -0.2804
     10 H          60.4141   92.0229   -1.8212 H       1  UNL1        0.1552
     11 C          59.0765   93.1980   -3.0566 C.ar    1  UNL1        0.0502
     12 C          59.5231   94.4063   -3.8252 C.ar    1  UNL1        0.0143
     13 C          58.7981   94.8107   -5.0745 C.ar    1  UNL1       -0.0032
     14 C          57.6264   94.0068   -5.5552 C.ar    1  UNL1       -0.0234
     15 C          57.1798   92.7986   -4.7867 C.ar    1  UNL1       -0.0091
     16 C          57.9049   92.3942   -3.5373 C.ar    1  UNL1        0.0114
     17 C          56.0082   91.9947   -5.2674 C.3     1  UNL1        0.0954
     18 N          55.2832   92.3991   -6.5167 N.3     1  UNL1       -0.2935
     19 C          55.7298   93.6074   -7.2852 C.3     1  UNL1        0.0735
     20 C          56.9014   94.4112   -6.8045 C.3     1  UNL1        0.0432
     21 H          54.3109   92.5602   -6.2538 H       1  UNL1        0.1236
     22 C          59.4983   92.1061    4.4497 C.3     1  UNL1        0.1166
     23 C          59.0174   90.1955    6.1434 C.2     1  UNL1        0.2462
     24 O          57.5434   90.4083    5.9650 O.2     1  UNL1       -0.2701
     25 N          59.9949   91.0444    5.3858 N.am    1  UNL1       -0.2969
     26 H          60.9624   90.9048    5.5030 H       1  UNL1        0.1501
     27 C          60.5073   87.0105    8.9517 C.ar    1  UNL1        0.1724
     28 C          60.4784   88.4444    9.3914 C.ar    1  UNL1        0.0402
     29 C          59.9817   89.5061    8.4553 C.ar    1  UNL1        0.0078
     30 C          59.5140   89.1339    7.0795 C.ar    1  UNL1        0.0566
     31 C          59.5429   87.7001    6.6399 C.ar    1  UNL1        0.0446
     32 C          60.0395   86.6384    7.5759 C.ar    1  UNL1        0.1725
     33 C          61.6042   86.3337   11.2075 C.3     1  UNL1        0.2526
     34 O          61.0039   85.9489    9.8877 O.3     1  UNL1       -0.4684
     35 O          60.0684   85.2045    7.1362 O.3     1  UNL1       -0.4684
     36 C          61.3150   84.6308    6.5306 C.3     1  UNL1        0.2526
@<TRIPOS>BOND
     1    33    34    1
     2    34    27    1
     3    27    28   ar
     4    28    29   ar
     5    29    30   ar
     6    30    23    1
     7    23    24    2
     8    23    25   am
     9    25    22    1
    10    22     1    1
    11     1     2   ar
    12     2     3   ar
    13     3     4   ar
    14     4     5   ar
    15     5     7    1
    16     7     8    2
    17     7     9   am
    18     9    11    1
    19    11    12   ar
    20    12    13   ar
    21    13    14   ar
    22    14    15   ar
    23    15    16   ar
    24    15    17    1
    25    17    18    1
    26    18    19    1
    27    19    20    1
    28     5     6   ar
    29    30    31   ar
    30    31    32   ar
    31    32    35    1
    32    35    36    1
    33    32    27   ar
    34     6     1   ar
    35    16    11   ar
    36    20    14    1
    37    25    26    1
    38     9    10    1
    39    18    21    1
