@<TRIPOS>MOLECULE
*****
 18 19 0 0 0
SMALL
GASTEIGER

@<TRIPOS>ATOM
      1 C          62.8305   84.3630   11.9327 C.ar    1  UNL1        0.0552
      2 C          63.6685   83.4646   11.0721 C.ar    1  UNL1        0.0056
      3 C          63.7454   83.7012    9.5929 C.ar    1  UNL1        0.0115
      4 C          62.9843   84.8361    8.9743 C.ar    1  UNL1        0.0616
      5 CL         63.0612   85.0726    7.4950 Cl      1  UNL1       -0.0823
      6 C          62.1463   85.7344    9.8349 C.ar    1  UNL1        0.0821
      7 C          62.0694   85.4979   11.3141 C.ar    1  UNL1        0.0094
      8 O          62.3774   85.1723   17.1309 O.2     1  UNL1       -0.2213
      9 C          62.5453   84.4984   15.8013 C.ar    1  UNL1        0.4358
     10 N          62.7251   83.0264   15.5753 N.ar    1  UNL1       -0.2081
     11 N          62.8538   82.7966   14.0986 N.ar    1  UNL1       -0.1296
     12 C          62.7536   84.1265   13.4120 C.ar    1  UNL1        0.2508
     13 O          62.5629   85.1782   14.4643 O.2     1  UNL1       -0.3879
     14 H          62.7536   82.3330   16.2735 H       1  UNL1        0.1954
     15 C          61.3851   86.8693    9.2162 C.3     1  UNL1        0.4194
     16 F          60.6240   88.0042    8.5976 F       1  UNL1       -0.1658
     17 F          60.2337   85.9477    8.9423 F       1  UNL1       -0.1658
     18 F          62.5365   87.7908    9.4902 F       1  UNL1       -0.1658
@<TRIPOS>BOND
     1     8     9    2
     2     9    10   ar
     3    10    11   ar
     4    11    12   ar
     5    12     1    1
     6     1     2   ar
     7     2     3   ar
     8     3     4   ar
     9     4     5    1
    10     4     6   ar
    11     6    15    1
    12    15    16    1
    13    15    17    1
    14    15    18    1
    15     6     7   ar
    16    12    13   ar
    17    13     9   ar
    18     7     1   ar
    19    10    14    1
@<TRIPOS>MOLECULE
*****
 18 19 0 0 0
SMALL
GASTEIGER

@<TRIPOS>ATOM
      1 C          61.9725   86.4543   10.2331 C.ar    1  UNL1        0.0552
      2 C          62.5266   85.9551    8.9317 C.ar    1  UNL1        0.0056
      3 C          63.3038   84.6728    8.8902 C.ar    1  UNL1        0.0115
      4 C          63.5269   83.8899   10.1501 C.ar    1  UNL1        0.0616
      5 CL         64.3042   82.6076   10.1085 Cl      1  UNL1       -0.0823
      6 C          62.9728   84.3892   11.4514 C.ar    1  UNL1        0.0821
      7 C          62.1956   85.6714   11.4930 C.ar    1  UNL1        0.0094
      8 O          59.0482   90.5007   11.9526 O.2     1  UNL1       -0.2213
      9 C          59.8511   89.5965   11.0650 C.ar    1  UNL1        0.4358
     10 N          60.1473   89.8232    9.6121 N.ar    1  UNL1       -0.2081
     11 N          60.9780   88.6737    9.1236 N.ar    1  UNL1       -0.1296
     12 C          61.1952   87.7367   10.2747 C.ar    1  UNL1        0.2508
     13 O          60.4988   88.3070   11.4745 O.2     1  UNL1       -0.3879
     14 H          59.8489   90.5914    9.0736 H       1  UNL1        0.1954
     15 C          63.1959   83.6062   12.7113 C.3     1  UNL1        0.4194
     16 F          63.4190   82.8233   13.9711 F       1  UNL1       -0.1658
     17 F          64.2941   84.5498   13.1032 F       1  UNL1       -0.1658
     18 F          62.0977   82.6627   12.3194 F       1  UNL1       -0.1658
@<TRIPOS>BOND
     1     8     9    2
     2     9    10   ar
     3    10    11   ar
     4    11    12   ar
     5    12     1    1
     6     1     2   ar
     7     2     3   ar
     8     3     4   ar
     9     4     5    1
    10     4     6   ar
    11     6    15    1
    12    15    16    1
    13    15    17    1
    14    15    18    1
    15     6     7   ar
    16    12    13   ar
    17    13     9   ar
    18     7     1   ar
    19    10    14    1
@<TRIPOS>MOLECULE
*****
 18 19 0 0 0
SMALL
GASTEIGER

@<TRIPOS>ATOM
      1 C          62.0366   88.7779   10.9961 C.ar    1  UNL1        0.0552
      2 C          60.7852   89.1916   10.2800 C.ar    1  UNL1        0.0056
      3 C          60.1770   88.2873    9.2494 C.ar    1  UNL1        0.0115
      4 C          60.8202   86.9692    8.9348 C.ar    1  UNL1        0.0616
      5 CL         60.2119   86.0649    7.9041 Cl      1  UNL1       -0.0823
      6 C          62.0716   86.5554    9.6509 C.ar    1  UNL1        0.0821
      7 C          62.6798   87.4598   10.6815 C.ar    1  UNL1        0.0094
      8 O          65.0299   92.4661   13.3021 O.2     1  UNL1       -0.2213
      9 C          64.0207   91.3775   13.0867 C.ar    1  UNL1        0.4358
     10 N          63.1409   90.7700   14.1389 N.ar    1  UNL1       -0.2081
     11 N          62.2906   89.7223   13.4838 N.ar    1  UNL1       -0.1296
     12 C          62.6448   89.6822   12.0268 C.ar    1  UNL1        0.2508
     13 O          63.7141   90.7052   11.7814 O.2     1  UNL1       -0.3879
     14 H          63.1245   91.0159   15.0921 H       1  UNL1        0.1954
     15 C          62.7148   85.2373    9.3363 C.3     1  UNL1        0.4194
     16 F          63.3579   83.9192    9.0218 F       1  UNL1       -0.1658
     17 F          62.0681   84.6328   10.5473 F       1  UNL1       -0.1658
     18 F          63.3614   85.8419    8.1254 F       1  UNL1       -0.1658
@<TRIPOS>BOND
     1     8     9    2
     2     9    10   ar
     3    10    11   ar
     4    11    12   ar
     5    12     1    1
     6     1     2   ar
     7     2     3   ar
     8     3     4   ar
     9     4     5    1
    10     4     6   ar
    11     6    15    1
    12    15    16    1
    13    15    17    1
    14    15    18    1
    15     6     7   ar
    16    12    13   ar
    17    13     9   ar
    18     7     1   ar
    19    10    14    1
@<TRIPOS>MOLECULE
*****
 18 19 0 0 0
SMALL
GASTEIGER

@<TRIPOS>ATOM
      1 C          63.1418   84.5061   13.9929 C.ar    1  UNL1        0.0552
      2 C          63.3907   84.9372   12.5780 C.ar    1  UNL1        0.0056
      3 C          63.3767   83.9242   11.4718 C.ar    1  UNL1        0.0115
      4 C          63.1139   82.4801   11.7806 C.ar    1  UNL1        0.0616
      5 CL         63.1000   81.4671   10.6743 Cl      1  UNL1       -0.0823
      6 C          62.8650   82.0489   13.1955 C.ar    1  UNL1        0.0821
      7 C          62.8790   83.0619   14.3017 C.ar    1  UNL1        0.0094
      8 O          62.4329   86.8356   18.6782 O.2     1  UNL1       -0.2213
      9 C          62.8299   86.5898   17.2527 C.ar    1  UNL1        0.4358
     10 N          63.5246   87.5660   16.3501 N.ar    1  UNL1       -0.2081
     11 N          63.7259   86.9042   15.0191 N.ar    1  UNL1       -0.1296
     12 C          63.1557   85.5191   15.0991 C.ar    1  UNL1        0.2508
     13 O          62.6020   85.3248   16.4796 O.2     1  UNL1       -0.3879
     14 H          63.7999   88.4804   16.5892 H       1  UNL1        0.1954
     15 C          62.6022   80.6048   13.5043 C.3     1  UNL1        0.4194
     16 F          62.3393   79.1606   13.8131 F       1  UNL1       -0.1658
     17 F          61.1275   80.8446   13.3706 F       1  UNL1       -0.1658
     18 F          64.0768   80.3650   13.6380 F       1  UNL1       -0.1658
@<TRIPOS>BOND
     1     8     9    2
     2     9    10   ar
     3    10    11   ar
     4    11    12   ar
     5    12     1    1
     6     1     2   ar
     7     2     3   ar
     8     3     4   ar
     9     4     5    1
    10     4     6   ar
    11     6    15    1
    12    15    16    1
    13    15    17    1
    14    15    18    1
    15     6     7   ar
    16    12    13   ar
    17    13     9   ar
    18     7     1   ar
    19    10    14    1
@<TRIPOS>MOLECULE
*****
 18 19 0 0 0
SMALL
GASTEIGER

@<TRIPOS>ATOM
      1 C          62.3327   85.6674   10.2236 C.ar    1  UNL1        0.0552
      2 C          63.0634   84.7125    9.3269 C.ar    1  UNL1        0.0056
      3 C          63.8296   83.5662    9.9175 C.ar    1  UNL1        0.0115
      4 C          63.8650   83.3748   11.4049 C.ar    1  UNL1        0.0616
      5 CL         64.6313   82.2284   11.9955 Cl      1  UNL1       -0.0823
      6 C          63.1343   84.3297   12.3015 C.ar    1  UNL1        0.0821
      7 C          62.3681   85.4761   11.7109 C.ar    1  UNL1        0.0094
      8 O          58.8988   88.4598    7.3439 O.2     1  UNL1       -0.2213
      9 C          59.9881   88.0973    8.3093 C.ar    1  UNL1        0.4358
     10 N          60.7868   89.0585    9.1390 N.ar    1  UNL1       -0.2081
     11 N          61.7622   88.2653    9.9570 N.ar    1  UNL1       -0.1296
     12 C          61.5665   86.8138    9.6330 C.ar    1  UNL1        0.2508
     13 O          60.4700   86.7100    8.6147 O.2     1  UNL1       -0.3879
     14 H          60.6880   90.0381    9.1455 H       1  UNL1        0.1954
     15 C          63.1698   84.1384   13.7889 C.3     1  UNL1        0.4194
     16 F          63.2052   83.9470   15.2762 F       1  UNL1       -0.1658
     17 F          64.2459   85.1778   13.8970 F       1  UNL1       -0.1658
     18 F          62.0936   83.0990   13.6808 F       1  UNL1       -0.1658
@<TRIPOS>BOND
     1     8     9    2
     2     9    10   ar
     3    10    11   ar
     4    11    12   ar
     5    12     1    1
     6     1     2   ar
     7     2     3   ar
     8     3     4   ar
     9     4     5    1
    10     4     6   ar
    11     6    15    1
    12    15    16    1
    13    15    17    1
    14    15    18    1
    15     6     7   ar
    16    12    13   ar
    17    13     9   ar
    18     7     1   ar
    19    10    14    1
@<TRIPOS>MOLECULE
*****
 18 19 0 0 0
SMALL
GASTEIGER

@<TRIPOS>ATOM
      1 C          63.5905   90.8150   12.0754 C.ar    1  UNL1        0.0552
      2 C          64.0071   90.4270   13.4632 C.ar    1  UNL1        0.0056
      3 C          65.2425   91.0235   14.0696 C.ar    1  UNL1        0.0115
      4 C          66.0613   92.0080   13.2884 C.ar    1  UNL1        0.0616
      5 CL         67.2968   92.6045   13.8949 Cl      1  UNL1       -0.0823
      6 C          65.6447   92.3959   11.9006 C.ar    1  UNL1        0.0821
      7 C          64.4093   91.7994   11.2941 C.ar    1  UNL1        0.0094
      8 O          59.9915   89.2181    8.5570 O.2     1  UNL1       -0.2213
      9 C          60.7008   89.4845    9.8517 C.ar    1  UNL1        0.4358
     10 N          60.2069   89.1165   11.2195 N.ar    1  UNL1       -0.2081
     11 N          61.2293   89.5702   12.2189 N.ar    1  UNL1       -0.1296
     12 C          62.3550   90.2184   11.4689 C.ar    1  UNL1        0.2508
     13 O          62.0283   90.1655   10.0058 O.2     1  UNL1       -0.3879
     14 H          59.3604   88.6579   11.4251 H       1  UNL1        0.1954
     15 C          66.4635   93.3804   11.1193 C.3     1  UNL1        0.4194
     16 F          67.2823   94.3648   10.3381 F       1  UNL1       -0.1658
     17 F          65.7635   94.5120   11.8116 F       1  UNL1       -0.1658
     18 F          67.1636   92.2487   10.4271 F       1  UNL1       -0.1658
@<TRIPOS>BOND
     1     8     9    2
     2     9    10   ar
     3    10    11   ar
     4    11    12   ar
     5    12     1    1
     6     1     2   ar
     7     2     3   ar
     8     3     4   ar
     9     4     5    1
    10     4     6   ar
    11     6    15    1
    12    15    16    1
    13    15    17    1
    14    15    18    1
    15     6     7   ar
    16    12    13   ar
    17    13     9   ar
    18     7     1   ar
    19    10    14    1
@<TRIPOS>MOLECULE
*****
 18 19 0 0 0
SMALL
GASTEIGER

@<TRIPOS>ATOM
      1 C          62.1493   89.0007   10.9693 C.ar    1  UNL1        0.0552
      2 C          60.9257   89.4707   10.2402 C.ar    1  UNL1        0.0056
      3 C          60.2603   88.5756    9.2372 C.ar    1  UNL1        0.0115
      4 C          60.8185   87.2106    8.9633 C.ar    1  UNL1        0.0616
      5 CL         60.1530   86.3155    7.9602 Cl      1  UNL1       -0.0823
      6 C          62.0422   86.7406    9.6925 C.ar    1  UNL1        0.0821
      7 C          62.7076   87.6356   10.6955 C.ar    1  UNL1        0.0094
      8 O          63.6235   91.2024   15.5367 O.2     1  UNL1       -0.2213
      9 C          63.4924   90.9077   14.0717 C.ar    1  UNL1        0.4358
     10 N          64.1853   91.6385   12.9600 N.ar    1  UNL1       -0.2081
     11 N          63.7665   91.0130   11.6625 N.ar    1  UNL1       -0.1296
     12 C          62.8148   89.8958   11.9724 C.ar    1  UNL1        0.2508
     13 O          62.6454   89.8307   13.4614 O.2     1  UNL1       -0.3879
     14 H          64.8060   92.3957   13.0637 H       1  UNL1        0.1954
     15 C          62.6004   85.3755    9.4186 C.3     1  UNL1        0.4194
     16 F          63.1587   84.0105    9.1448 F       1  UNL1       -0.1658
     17 F          63.3283   85.9132    8.2223 F       1  UNL1       -0.1658
     18 F          61.8726   84.8379   10.6150 F       1  UNL1       -0.1658
@<TRIPOS>BOND
     1     8     9    2
     2     9    10   ar
     3    10    11   ar
     4    11    12   ar
     5    12     1    1
     6     1     2   ar
     7     2     3   ar
     8     3     4   ar
     9     4     5    1
    10     4     6   ar
    11     6    15    1
    12    15    16    1
    13    15    17    1
    14    15    18    1
    15     6     7   ar
    16    12    13   ar
    17    13     9   ar
    18     7     1   ar
    19    10    14    1
@<TRIPOS>MOLECULE
*****
 18 19 0 0 0
SMALL
GASTEIGER

@<TRIPOS>ATOM
      1 C          62.4986   86.0061   11.5982 C.ar    1  UNL1        0.0552
      2 C          62.8060   87.4415   11.9064 C.ar    1  UNL1        0.0056
      3 C          62.2401   88.5313   11.0449 C.ar    1  UNL1        0.0115
      4 C          61.3669   88.1856    9.8753 C.ar    1  UNL1        0.0616
      5 CL         60.8010   89.2755    9.0138 Cl      1  UNL1       -0.0823
      6 C          61.0595   86.7502    9.5672 C.ar    1  UNL1        0.0821
      7 C          61.6253   85.6604   10.4287 C.ar    1  UNL1        0.0094
      8 O          63.8376   81.2390   13.4322 O.2     1  UNL1       -0.2213
      9 C          63.6799   82.7251   13.3027 C.ar    1  UNL1        0.4358
     10 N          64.1905   83.7533   14.2681 N.ar    1  UNL1       -0.2081
     11 N          63.8101   85.1075   13.7471 N.ar    1  UNL1       -0.1296
     12 C          63.0644   84.9162   12.4597 C.ar    1  UNL1        0.2508
     13 O          62.9840   83.4438   12.1851 O.2     1  UNL1       -0.3879
     14 H          64.6880   83.5713   15.0980 H       1  UNL1        0.1954
     15 C          60.1862   86.4045    8.3976 C.3     1  UNL1        0.4194
     16 F          59.3129   86.0589    7.2280 F       1  UNL1       -0.1658
     17 F          61.3884   85.9184    7.6437 F       1  UNL1       -0.1658
     18 F          58.9840   86.8907    9.1515 F       1  UNL1       -0.1658
@<TRIPOS>BOND
     1     8     9    2
     2     9    10   ar
     3    10    11   ar
     4    11    12   ar
     5    12     1    1
     6     1     2   ar
     7     2     3   ar
     8     3     4   ar
     9     4     5    1
    10     4     6   ar
    11     6    15    1
    12    15    16    1
    13    15    17    1
    14    15    18    1
    15     6     7   ar
    16    12    13   ar
    17    13     9   ar
    18     7     1   ar
    19    10    14    1
@<TRIPOS>MOLECULE
*****
 18 19 0 0 0
SMALL
GASTEIGER

@<TRIPOS>ATOM
      1 C          65.3315   92.4649   11.2544 C.ar    1  UNL1        0.0552
      2 C          65.5122   92.1589   12.7117 C.ar    1  UNL1        0.0056
      3 C          64.5572   91.2355   13.4081 C.ar    1  UNL1        0.0115
      4 C          63.4214   90.6181   12.6473 C.ar    1  UNL1        0.0616
      5 CL         62.4663   89.6946   13.3438 Cl      1  UNL1       -0.0823
      6 C          63.2407   90.9241   11.1901 C.ar    1  UNL1        0.0821
      7 C          64.1958   91.8475   10.4936 C.ar    1  UNL1        0.0094
      8 O          67.4229   96.7538    8.9933 O.2     1  UNL1       -0.2213
      9 C          67.2479   95.3597    9.5186 C.ar    1  UNL1        0.4358
     10 N          68.2649   94.2590    9.4536 N.ar    1  UNL1       -0.2081
     11 N          67.6707   93.0406   10.0959 N.ar    1  UNL1       -0.1296
     12 C          66.2866   93.3884   10.5579 C.ar    1  UNL1        0.2508
     13 O          66.0253   94.8217   10.2011 O.2     1  UNL1       -0.3879
     14 H          69.1643   94.3246    9.0587 H       1  UNL1        0.1954
     15 C          62.1049   90.3067   10.4293 C.3     1  UNL1        0.4194
     16 F          60.9691   89.6893    9.6684 F       1  UNL1       -0.1658
     17 F          63.0406   89.2778    9.8673 F       1  UNL1       -0.1658
     18 F          61.1692   91.3356   10.9912 F       1  UNL1       -0.1658
@<TRIPOS>BOND
     1     8     9    2
     2     9    10   ar
     3    10    11   ar
     4    11    12   ar
     5    12     1    1
     6     1     2   ar
     7     2     3   ar
     8     3     4   ar
     9     4     5    1
    10     4     6   ar
    11     6    15    1
    12    15    16    1
    13    15    17    1
    14    15    18    1
    15     6     7   ar
    16    12    13   ar
    17    13     9   ar
    18     7     1   ar
    19    10    14    1
