@<TRIPOS>MOLECULE
*****
 16 17 0 0 0
SMALL
GASTEIGER

@<TRIPOS>ATOM
      1 C          63.4716   84.2157   12.8084 C.2     1  UNL1        0.1898
      2 N          62.3880   85.2446   12.6775 N.2     1  UNL1       -0.2199
      3 C          62.1719   85.5070   11.2165 C.2     1  UNL1        0.1003
      4 C          61.2328   86.4232   10.4895 C.2     1  UNL1        0.0569
      5 C          61.2437   86.4726    8.9904 C.2     1  UNL1        0.1364
      6 C          62.1938   85.6059    8.2183 C.2     1  UNL1        0.0172
      7 C          63.1329   84.6897    8.9453 C.3     1  UNL1        0.0765
      8 C          63.1220   84.6403   10.4444 C.2     1  UNL1        0.0833
      9 N          63.9252   83.8422   11.4283 N.2     1  UNL1       -0.2238
     10 O          60.3046   87.3889    8.2633 O.2     1  UNL1       -0.4717
     11 C          59.0146   86.8573    7.7124 C.3     1  UNL1        0.2525
     12 S          64.0075   83.6582   14.0937 S.3     1  UNL1       -0.0757
     13 C          63.1497   82.7639   14.9387 C.3     1  UNL1        0.0652
     14 C          62.0107   82.0112   14.3172 C.3     1  UNL1        0.0121
     15 C          62.7575   80.4816   12.3544 C.3     1  UNL1        0.0000
     16 C          62.2372   80.6402   13.7523 C.3     1  UNL1        0.0009
@<TRIPOS>BOND
     1    15    16    1
     2    16    14    1
     3    14    13    1
     4    13    12    1
     5    12     1    1
     6     1     2    2
     7     2     3    1
     8     3     4    2
     9     4     5    1
    10     5    10    1
    11    10    11    1
    12     5     6    2
    13     6     7    1
    14     7     8    1
    15     8     9    2
    16     9     1    1
    17     8     3    1
@<TRIPOS>MOLECULE
*****
 16 17 0 0 0
SMALL
GASTEIGER

@<TRIPOS>ATOM
      1 C          65.6873   93.5929   11.7072 C.2     1  UNL1        0.1898
      2 N          65.8066   93.0414   13.0970 N.2     1  UNL1       -0.2199
      3 C          64.9902   91.7851   13.1689 C.2     1  UNL1        0.1003
      4 C          64.7343   90.8170   14.2857 C.2     1  UNL1        0.0569
      5 C          63.8546   89.6238   14.0570 C.2     1  UNL1        0.1364
      6 C          63.2308   89.3987   12.7116 C.2     1  UNL1        0.0172
      7 C          63.4867   90.3668   11.5948 C.3     1  UNL1        0.0765
      8 C          64.3664   91.5600   11.8235 C.2     1  UNL1        0.0833
      9 N          64.7973   92.6773   10.9201 N.2     1  UNL1       -0.2238
     10 O          63.5986   88.6556   15.1738 O.2     1  UNL1       -0.4717
     11 C          63.1776   89.1603   16.5222 C.3     1  UNL1        0.2525
     12 S          66.3430   94.8407   11.1944 S.3     1  UNL1       -0.0757
     13 C          66.6653   94.9734    9.7355 C.3     1  UNL1        0.0652
     14 C          67.9915   94.5044    9.2147 C.3     1  UNL1        0.0121
     15 C          68.3944   92.0183    9.8526 C.3     1  UNL1        0.0000
     16 C          68.1736   93.0720    8.8082 C.3     1  UNL1        0.0009
@<TRIPOS>BOND
     1    15    16    1
     2    16    14    1
     3    14    13    1
     4    13    12    1
     5    12     1    1
     6     1     2    2
     7     2     3    1
     8     3     4    2
     9     4     5    1
    10     5    10    1
    11    10    11    1
    12     5     6    2
    13     6     7    1
    14     7     8    1
    15     8     9    2
    16     9     1    1
    17     8     3    1
@<TRIPOS>MOLECULE
*****
 16 17 0 0 0
SMALL
GASTEIGER

@<TRIPOS>ATOM
      1 C          61.1082   87.1392   10.2971 C.2     1  UNL1        0.1898
      2 N          61.3623   86.4640   11.6122 N.2     1  UNL1       -0.2199
      3 C          62.2889   85.3097   11.3692 C.2     1  UNL1        0.1003
      4 C          62.8837   84.2885   12.2929 C.2     1  UNL1        0.0569
      5 C          63.7970   83.2290   11.7513 C.2     1  UNL1        0.1364
      6 C          64.1155   83.1908   10.2860 C.2     1  UNL1        0.0172
      7 C          63.5208   84.2120    9.3623 C.3     1  UNL1        0.0765
      8 C          62.6074   85.2715    9.9039 C.2     1  UNL1        0.0833
      9 N          61.8777   86.4022    9.2413 N.2     1  UNL1       -0.2238
     10 O          64.3919   82.2077   12.6750 O.2     1  UNL1       -0.4717
     11 C          63.5169   81.1620   13.3002 C.3     1  UNL1        0.2525
     12 S          60.2375   88.3405   10.0764 S.3     1  UNL1       -0.0757
     13 C          60.8132   89.7191   10.2110 C.3     1  UNL1        0.0652
     14 C          62.3006   89.9134   10.2164 C.3     1  UNL1        0.0121
     15 C          63.3175   89.3688   12.5444 C.3     1  UNL1        0.0000
     16 C          62.9937   90.3627   11.4686 C.3     1  UNL1        0.0009
@<TRIPOS>BOND
     1    15    16    1
     2    16    14    1
     3    14    13    1
     4    13    12    1
     5    12     1    1
     6     1     2    2
     7     2     3    1
     8     3     4    2
     9     4     5    1
    10     5    10    1
    11    10    11    1
    12     5     6    2
    13     6     7    1
    14     7     8    1
    15     8     9    2
    16     9     1    1
    17     8     3    1
@<TRIPOS>MOLECULE
*****
 16 17 0 0 0
SMALL
GASTEIGER

@<TRIPOS>ATOM
      1 C          61.5059   86.8444   10.7499 C.2     1  UNL1        0.1898
      2 N          61.5855   86.0570   12.0241 N.2     1  UNL1       -0.2199
      3 C          62.4304   84.8444   11.7678 C.2     1  UNL1        0.1003
      4 C          62.8539   83.7107   12.6538 C.2     1  UNL1        0.0569
      5 C          63.7201   82.6148   12.1072 C.2     1  UNL1        0.1364
      6 C          64.1627   82.6527   10.6745 C.2     1  UNL1        0.0172
      7 C          63.7391   83.7865    9.7884 C.3     1  UNL1        0.0765
      8 C          62.8730   84.8824   10.3351 C.2     1  UNL1        0.0833
      9 N          62.3016   86.1184    9.7060 N.2     1  UNL1       -0.2238
     10 O          64.1436   81.4809   12.9932 O.2     1  UNL1       -0.4717
     11 C          63.1098   80.6505   13.6944 C.3     1  UNL1        0.2525
     12 S          60.7613   88.1317   10.5539 S.3     1  UNL1       -0.0757
     13 C          60.8262   88.8424    9.2345 C.3     1  UNL1        0.0652
     14 C          59.7923   88.5677    8.1831 C.3     1  UNL1        0.0121
     15 C          59.7735   86.0641    7.4892 C.3     1  UNL1        0.0000
     16 C          59.1017   87.2368    8.1398 C.3     1  UNL1        0.0009
@<TRIPOS>BOND
     1    15    16    1
     2    16    14    1
     3    14    13    1
     4    13    12    1
     5    12     1    1
     6     1     2    2
     7     2     3    1
     8     3     4    2
     9     4     5    1
    10     5    10    1
    11    10    11    1
    12     5     6    2
    13     6     7    1
    14     7     8    1
    15     8     9    2
    16     9     1    1
    17     8     3    1
@<TRIPOS>MOLECULE
*****
 16 17 0 0 0
SMALL
GASTEIGER

@<TRIPOS>ATOM
      1 C          61.8772   89.5082   10.6176 C.2     1  UNL1        0.1898
      2 N          62.6591   90.7882   10.6317 N.2     1  UNL1       -0.2199
      3 C          63.5228   90.7904   11.8580 C.2     1  UNL1        0.1003
      4 C          64.5032   91.7915   12.3934 C.2     1  UNL1        0.0569
      5 C          65.2355   91.5139   13.6727 C.2     1  UNL1        0.1364
      6 C          64.9874   90.2352   14.4166 C.2     1  UNL1        0.0172
      7 C          64.0071   89.2341   13.8812 C.3     1  UNL1        0.0765
      8 C          63.2748   89.5117   12.6019 C.2     1  UNL1        0.0833
      9 N          62.2577   88.7193   11.8353 N.2     1  UNL1       -0.2238
     10 O          66.2159   92.5151   14.2081 O.2     1  UNL1       -0.4717
     11 C          66.4535   92.6158   15.6857 C.3     1  UNL1        0.2525
     12 S          60.8884   89.0905    9.5699 S.3     1  UNL1       -0.0757
     13 C          60.3132   87.7053    9.5913 C.3     1  UNL1        0.0652
     14 C          60.9290   86.6245    8.7531 C.3     1  UNL1        0.0121
     15 C          63.0130   85.1856    8.1729 C.3     1  UNL1        0.0000
     16 C          62.2458   86.0259    9.1503 C.3     1  UNL1        0.0009
@<TRIPOS>BOND
     1    15    16    1
     2    16    14    1
     3    14    13    1
     4    13    12    1
     5    12     1    1
     6     1     2    2
     7     2     3    1
     8     3     4    2
     9     4     5    1
    10     5    10    1
    11    10    11    1
    12     5     6    2
    13     6     7    1
    14     7     8    1
    15     8     9    2
    16     9     1    1
    17     8     3    1
@<TRIPOS>MOLECULE
*****
 16 17 0 0 0
SMALL
GASTEIGER

@<TRIPOS>ATOM
      1 C          62.7074   85.4615   12.0968 C.2     1  UNL1        0.1898
      2 N          61.8170   85.0636   10.9571 N.2     1  UNL1       -0.2199
      3 C          61.3457   86.3154   10.2782 C.2     1  UNL1        0.1003
      4 C          60.4485   86.5398    9.0973 C.2     1  UNL1        0.0569
      5 C          60.1504   87.9358    8.6365 C.2     1  UNL1        0.1364
      6 C          60.7495   89.1073    9.3566 C.2     1  UNL1        0.0172
      7 C          61.6467   88.8829   10.5375 C.3     1  UNL1        0.0765
      8 C          61.9449   87.4869   10.9983 C.2     1  UNL1        0.0833
      9 N          62.7864   86.9592   12.1223 N.2     1  UNL1       -0.2238
     10 O          59.2531   88.1603    7.4556 O.2     1  UNL1       -0.4717
     11 C          59.3704   89.4226    6.6537 C.3     1  UNL1        0.2525
     12 S          63.3975   84.5259   13.0447 S.3     1  UNL1       -0.0757
     13 C          62.6989   84.0717   14.2919 C.3     1  UNL1        0.0652
     14 C          62.2142   82.6568   14.4071 C.3     1  UNL1        0.0121
     15 C          62.5482   80.3355   13.2890 C.3     1  UNL1        0.0000
     16 C          62.1602   81.7811   13.1904 C.3     1  UNL1        0.0009
@<TRIPOS>BOND
     1    15    16    1
     2    16    14    1
     3    14    13    1
     4    13    12    1
     5    12     1    1
     6     1     2    2
     7     2     3    1
     8     3     4    2
     9     4     5    1
    10     5    10    1
    11    10    11    1
    12     5     6    2
    13     6     7    1
    14     7     8    1
    15     8     9    2
    16     9     1    1
    17     8     3    1
@<TRIPOS>MOLECULE
*****
 16 17 0 0 0
SMALL
GASTEIGER

@<TRIPOS>ATOM
      1 C          61.3603   89.2174   11.0972 C.2     1  UNL1        0.1898
      2 N          61.9688   89.3602   12.4608 N.2     1  UNL1       -0.2199
      3 C          63.0873   90.3554   12.3674 C.2     1  UNL1        0.1003
      4 C          64.0410   90.8925   13.3929 C.2     1  UNL1        0.0569
      5 C          65.0775   91.9020   12.9972 C.2     1  UNL1        0.1364
      6 C          65.1602   92.3743   11.5759 C.2     1  UNL1        0.0172
      7 C          64.2064   91.8371   10.5503 C.3     1  UNL1        0.0765
      8 C          63.1700   90.8277   10.9461 C.2     1  UNL1        0.0833
      9 N          62.1027   90.1243   10.1611 N.2     1  UNL1       -0.2238
     10 O          66.0313   92.4392   14.0227 O.2     1  UNL1       -0.4717
     11 C          67.1058   91.5554   14.5833 C.3     1  UNL1        0.2525
     12 S          60.2112   88.3244   10.7336 S.3     1  UNL1       -0.0757
     13 C          60.1931   87.6290    9.4047 C.3     1  UNL1        0.0652
     14 C          60.8129   86.2707    9.2605 C.3     1  UNL1        0.0121
     15 C          62.8757   85.2211    8.0802 C.3     1  UNL1        0.0000
     16 C          62.3003   86.1361    9.1202 C.3     1  UNL1        0.0009
@<TRIPOS>BOND
     1    15    16    1
     2    16    14    1
     3    14    13    1
     4    13    12    1
     5    12     1    1
     6     1     2    2
     7     2     3    1
     8     3     4    2
     9     4     5    1
    10     5    10    1
    11    10    11    1
    12     5     6    2
    13     6     7    1
    14     7     8    1
    15     8     9    2
    16     9     1    1
    17     8     3    1
@<TRIPOS>MOLECULE
*****
 16 17 0 0 0
SMALL
GASTEIGER

@<TRIPOS>ATOM
      1 C          61.8300   89.4805   11.2437 C.2     1  UNL1        0.1898
      2 N          62.5852   90.4750   10.4127 N.2     1  UNL1       -0.2199
      3 C          63.6710   91.0619   11.2651 C.2     1  UNL1        0.1003
      4 C          64.7254   92.0900   10.9803 C.2     1  UNL1        0.0569
      5 C          65.6958   92.4863   12.0533 C.2     1  UNL1        0.1364
      6 C          65.6116   91.8545   13.4111 C.2     1  UNL1        0.0172
      7 C          64.5572   90.8264   13.6960 C.3     1  UNL1        0.0765
      8 C          63.5869   90.4301   12.6230 C.2     1  UNL1        0.0833
      9 N          62.4491   89.4527   12.6097 N.2     1  UNL1       -0.2238
     10 O          66.7503   93.5144   11.7685 O.2     1  UNL1       -0.4717
     11 C          66.6938   94.3155   10.5016 C.3     1  UNL1        0.2525
     12 S          60.6610   88.6581   10.7887 S.3     1  UNL1       -0.0757
     13 C          60.5617   88.2238    9.3564 C.3     1  UNL1        0.0652
     14 C          60.8515   86.8004    8.9824 C.3     1  UNL1        0.0121
     15 C          62.9733   85.4331    8.3671 C.3     1  UNL1        0.0000
     16 C          62.1520   86.1695    9.3835 C.3     1  UNL1        0.0009
@<TRIPOS>BOND
     1    15    16    1
     2    16    14    1
     3    14    13    1
     4    13    12    1
     5    12     1    1
     6     1     2    2
     7     2     3    1
     8     3     4    2
     9     4     5    1
    10     5    10    1
    11    10    11    1
    12     5     6    2
    13     6     7    1
    14     7     8    1
    15     8     9    2
    16     9     1    1
    17     8     3    1
@<TRIPOS>MOLECULE
*****
 16 17 0 0 0
SMALL
GASTEIGER

@<TRIPOS>ATOM
      1 C          62.2897   86.5981   11.2476 C.2     1  UNL1        0.1898
      2 N          62.0246   85.1379   11.0293 N.2     1  UNL1       -0.2199
      3 C          62.6506   84.3787   12.1614 C.2     1  UNL1        0.1003
      4 C          62.7112   82.9132   12.4749 C.2     1  UNL1        0.0569
      5 C          63.4237   82.4385   13.7065 C.2     1  UNL1        0.1364
      6 C          64.0757   83.4295   14.6246 C.2     1  UNL1        0.0172
      7 C          64.0151   84.8951   14.3111 C.3     1  UNL1        0.0765
      8 C          63.3026   85.3697   13.0795 C.2     1  UNL1        0.0833
      9 N          63.0795   86.7413   12.5148 N.2     1  UNL1       -0.2238
     10 O          63.4844   80.9729   14.0201 O.2     1  UNL1       -0.4717
     11 C          62.4113   80.0533   13.5172 C.3     1  UNL1        0.2525
     12 S          61.8433   87.7183   10.3555 S.3     1  UNL1       -0.0757
     13 C          60.9683   88.8079   10.9005 C.3     1  UNL1        0.0652
     14 C          61.5742   89.9369   11.6804 C.3     1  UNL1        0.0121
     15 C          63.2018   91.3086   10.1906 C.3     1  UNL1        0.0000
     16 C          62.9636   90.4058   11.3646 C.3     1  UNL1        0.0009
@<TRIPOS>BOND
     1    15    16    1
     2    16    14    1
     3    14    13    1
     4    13    12    1
     5    12     1    1
     6     1     2    2
     7     2     3    1
     8     3     4    2
     9     4     5    1
    10     5    10    1
    11    10    11    1
    12     5     6    2
    13     6     7    1
    14     7     8    1
    15     8     9    2
    16     9     1    1
    17     8     3    1
