@<TRIPOS>MOLECULE
*****
 45 48 0 0 0
SMALL
GASTEIGER

@<TRIPOS>ATOM
      1 N          64.2845   90.9953   12.7201 N.pl3   1  UNL1       -0.3043
      2 C          64.3489   89.4980   12.7821 C.3     1  UNL1        0.1123
      3 C          63.4125   88.6720   11.9510 C.3     1  UNL1        0.1149
      4 N          62.4116   89.3433   11.0579 N.am    1  UNL1       -0.2747
      5 C          61.4752   88.5173   10.2268 C.2     1  UNL1        0.2442
      6 O          60.4744   89.1886    9.3337 O.2     1  UNL1       -0.2731
      7 C          62.3473   90.8407   10.9959 C.3     1  UNL1        0.1149
      8 C          63.2838   91.6667   11.8270 C.3     1  UNL1        0.1123
      9 C          65.9905   92.9445   12.9217 C.ar    1  UNL1        0.0111
     10 C          66.9269   93.7704   13.7529 C.ar    1  UNL1        0.0282
     11 C          67.0939   93.4732   15.2136 C.ar    1  UNL1        0.1400
     12 F          68.0304   94.2992   16.0448 F       1  UNL1       -0.2042
     13 C          66.3245   92.3501   15.8432 C.ar    1  UNL1        0.0309
     14 C          65.3880   91.5241   15.0120 C.ar    1  UNL1        0.0166
     15 C          65.2211   91.8213   13.5513 C.ar    1  UNL1        0.0456
     16 C          65.8235   93.2417   11.4610 C.3     1  UNL1        0.0953
     17 N          65.0157   94.4278   11.0245 N.am    1  UNL1       -0.3021
     18 C          65.6847   95.5760   10.3288 C.2     1  UNL1        0.2241
     19 O          64.8768   96.7621    9.8923 O.2     1  UNL1       -0.2750
     20 H          64.0463   94.4526   11.1946 H       1  UNL1        0.1497
     21 C          67.1617   95.5381   10.0696 C.3     1  UNL1        0.1018
     22 C          67.6832   95.7176    8.6746 C.3     1  UNL1        0.0748
     23 N          67.1910   96.8557    7.8306 N.3     1  UNL1       -0.3207
     24 H          66.2002   96.7241    7.6268 H       1  UNL1        0.1189
     25 H          67.7170   96.8835    6.9571 H       1  UNL1        0.1189
     26 C          66.4644   92.3528   10.4367 C.3     1  UNL1        0.0242
     27 C          68.5815   91.5999   11.7409 C.3     1  UNL1        0.0001
     28 C          67.9428   92.1028   10.4803 C.3     1  UNL1        0.0020
     29 C          68.7824   92.3557    9.2633 C.3     1  UNL1        0.0001
     30 C          61.5395   87.0200   10.2888 C.3     1  UNL1        0.1564
     31 N          61.6822   86.2225    9.0264 N.am    1  UNL1       -0.2727
     32 C          62.9360   85.5580    8.5403 C.3     1  UNL1        0.0943
     33 C          62.6248   84.8743    7.2419 C.3     1  UNL1        0.0311
     34 C          61.1786   85.1162    6.9257 C.3     1  UNL1        0.0870
     35 C          60.5961   85.9495    8.0286 C.2     1  UNL1        0.2260
     36 O          59.1766   86.4260    8.1179 O.2     1  UNL1       -0.2749
     37 C          61.4612   86.3201   11.6132 C.3     1  UNL1        0.0564
     38 C          62.3065   85.1083   11.8722 C.ar    1  UNL1       -0.0094
     39 C          62.1322   83.8786   11.0312 C.ar    1  UNL1       -0.0025
     40 C          62.9774   82.6668   11.2902 C.ar    1  UNL1        0.0111
     41 C          63.9969   82.6847   12.3904 C.ar    1  UNL1        0.0585
     42 CL         64.8421   81.4729   12.6494 Cl      1  UNL1       -0.0822
     43 C          64.1712   83.9144   13.2315 C.ar    1  UNL1        0.0225
     44 C          63.3260   85.1263   12.9724 C.ar    1  UNL1        0.0546
     45 CL         63.5002   86.3560   13.8135 Cl      1  UNL1       -0.0825
@<TRIPOS>BOND
     1    27    28    1
     2    28    29    1
     3    28    26    1
     4    16    26    1
     5    16    17    1
     6    17    18   am
     7    18    19    2
     8    18    21    1
     9    21    22    1
    10    22    23    1
    11    16     9    1
    12     9    10   ar
    13    10    11   ar
    14    11    12    1
    15    11    13   ar
    16    13    14   ar
    17    14    15   ar
    18    15     1    1
    19     1     2    1
    20     2     3    1
    21     3     4    1
    22     4     5   am
    23     5     6    2
    24     5    30    1
    25    30    37    1
    26    37    38    1
    27    38    39   ar
    28    39    40   ar
    29    40    41   ar
    30    41    42    1
    31    41    43   ar
    32    43    44   ar
    33    44    45    1
    34    30    31    1
    35    31    32    1
    36    32    33    1
    37    33    34    1
    38    34    35    1
    39    35    36    2
    40     4     7    1
    41     7     8    1
    42    15     9   ar
    43     8     1    1
    44    44    38   ar
    45    35    31   am
    46    17    20    1
    47    23    24    1
    48    23    25    1
@<TRIPOS>MOLECULE
*****
 45 48 0 0 0
SMALL
GASTEIGER

@<TRIPOS>ATOM
      1 N          62.0930   89.3611   11.0056 N.pl3   1  UNL1       -0.3043
      2 C          63.4339   89.8229   10.5170 C.3     1  UNL1        0.1123
      3 C          64.3609   90.5499   11.4455 C.3     1  UNL1        0.1149
      4 N          63.9470   90.8150   12.8627 N.am    1  UNL1       -0.2747
      5 C          64.8740   91.5420   13.7912 C.2     1  UNL1        0.2442
      6 O          64.4601   91.8071   15.2084 O.2     1  UNL1       -0.2731
      7 C          62.6061   90.3532   13.3514 C.3     1  UNL1        0.1149
      8 C          61.6791   89.6262   12.4228 C.3     1  UNL1        0.1123
      9 C          61.1661   87.1346   10.0394 C.ar    1  UNL1        0.0111
     10 C          60.2391   86.4077    9.1109 C.ar    1  UNL1        0.0282
     11 C          59.3121   87.1802    8.2199 C.ar    1  UNL1        0.1400
     12 F          58.3851   86.4532    7.2913 F       1  UNL1       -0.2042
     13 C          59.3120   88.6797    8.2575 C.ar    1  UNL1        0.0309
     14 C          60.2390   89.4067    9.1861 C.ar    1  UNL1        0.0166
     15 C          61.1660   88.6341   10.0770 C.ar    1  UNL1        0.0456
     16 C          62.0931   86.3620   10.9304 C.3     1  UNL1        0.0953
     17 N          62.8371   87.0638   12.0275 N.am    1  UNL1       -0.3021
     18 C          63.3184   86.2920   13.2203 C.2     1  UNL1        0.2241
     19 O          64.0625   86.9939   14.3174 O.2     1  UNL1       -0.2750
     20 H          63.0096   88.0311   11.9647 H       1  UNL1        0.1497
     21 C          63.0555   84.8184   13.3159 C.3     1  UNL1        0.1018
     22 C          64.0928   83.9081   13.9036 C.3     1  UNL1        0.0748
     23 N          65.4445   84.4473   14.2674 N.3     1  UNL1       -0.3207
     24 H          65.9332   84.7390   13.4210 H       1  UNL1        0.1189
     25 H          65.9844   83.7216   14.7388 H       1  UNL1        0.1189
     26 C          62.2760   84.8876   10.7242 C.3     1  UNL1        0.0242
     27 C          64.2444   83.2997   10.1289 C.3     1  UNL1        0.0001
     28 C          63.2896   84.3883    9.7374 C.3     1  UNL1        0.0020
     29 C          63.3482   84.9777    8.3593 C.3     1  UNL1        0.0001
     30 C          66.2149   92.0038   13.3026 C.3     1  UNL1        0.1564
     31 N          67.2083   92.5779   14.2688 N.am    1  UNL1       -0.2727
     32 C          66.8841   93.3781   15.4954 C.3     1  UNL1        0.0943
     33 C          68.1757   93.7474   16.1628 C.3     1  UNL1        0.0311
     34 C          69.2982   93.1754   15.3485 C.3     1  UNL1        0.0870
     35 C          68.7002   92.4527   14.1780 C.2     1  UNL1        0.2260
     36 O          69.4608   91.7313   13.1050 O.2     1  UNL1       -0.2749
     37 C          66.5624   91.8916   11.8477 C.3     1  UNL1        0.0564
     38 C          66.7706   93.1308   11.0286 C.ar    1  UNL1       -0.0094
     39 C          66.1263   94.4205   11.4425 C.ar    1  UNL1       -0.0025
     40 C          66.3346   95.6597   10.6233 C.ar    1  UNL1        0.0111
     41 C          67.1872   95.6092    9.3903 C.ar    1  UNL1        0.0585
     42 CL         67.3955   96.8484    8.5712 Cl      1  UNL1       -0.0822
     43 C          67.8316   94.3194    8.9764 C.ar    1  UNL1        0.0225
     44 C          67.6233   93.0802    9.7955 C.ar    1  UNL1        0.0546
     45 CL         68.2677   91.7905    9.3816 Cl      1  UNL1       -0.0825
@<TRIPOS>BOND
     1    27    28    1
     2    28    29    1
     3    28    26    1
     4    16    26    1
     5    16    17    1
     6    17    18   am
     7    18    19    2
     8    18    21    1
     9    21    22    1
    10    22    23    1
    11    16     9    1
    12     9    10   ar
    13    10    11   ar
    14    11    12    1
    15    11    13   ar
    16    13    14   ar
    17    14    15   ar
    18    15     1    1
    19     1     2    1
    20     2     3    1
    21     3     4    1
    22     4     5   am
    23     5     6    2
    24     5    30    1
    25    30    37    1
    26    37    38    1
    27    38    39   ar
    28    39    40   ar
    29    40    41   ar
    30    41    42    1
    31    41    43   ar
    32    43    44   ar
    33    44    45    1
    34    30    31    1
    35    31    32    1
    36    32    33    1
    37    33    34    1
    38    34    35    1
    39    35    36    2
    40     4     7    1
    41     7     8    1
    42    15     9   ar
    43     8     1    1
    44    44    38   ar
    45    35    31   am
    46    17    20    1
    47    23    24    1
    48    23    25    1
@<TRIPOS>MOLECULE
*****
 45 48 0 0 0
SMALL
GASTEIGER

@<TRIPOS>ATOM
      1 N          63.5022   85.8394   13.7906 N.pl3   1  UNL1       -0.3043
      2 C          64.1359   86.9415   12.9944 C.3     1  UNL1        0.1123
      3 C          64.3072   88.3024   13.6015 C.3     1  UNL1        0.1149
      4 N          63.8449   88.5612   15.0049 N.am    1  UNL1       -0.2747
      5 C          64.0163   89.9221   15.6120 C.2     1  UNL1        0.2442
      6 O          63.5540   90.1809   17.0152 O.2     1  UNL1       -0.2731
      7 C          63.2113   87.4592   15.8011 C.3     1  UNL1        0.1149
      8 C          63.0399   86.0982   15.1939 C.3     1  UNL1        0.1123
      9 C          62.6051   84.3248   11.8797 C.ar    1  UNL1        0.0111
     10 C          62.4338   82.9640   11.2726 C.ar    1  UNL1        0.0282
     11 C          62.9882   81.7567   11.9692 C.ar    1  UNL1        0.1400
     12 F          62.8168   80.3958   11.3621 F       1  UNL1       -0.2042
     13 C          63.7139   81.9104   13.2730 C.ar    1  UNL1        0.0309
     14 C          63.8852   83.2713   13.8800 C.ar    1  UNL1        0.0166
     15 C          63.3308   84.4785   13.1834 C.ar    1  UNL1        0.0456
     16 C          62.0508   85.5321   11.1831 C.3     1  UNL1        0.0953
     17 N          60.9020   86.2845   11.7864 N.am    1  UNL1       -0.3021
     18 C          60.6872   87.7284   11.4414 C.2     1  UNL1        0.2241
     19 O          59.5383   88.4809   12.0447 O.2     1  UNL1       -0.2750
     20 H          60.2889   85.8307   12.4088 H       1  UNL1        0.1497
     21 C          61.6213   88.4199   10.4931 C.3     1  UNL1        0.1018
     22 C          61.0759   89.3328    9.4352 C.3     1  UNL1        0.0748
     23 N          60.1506   90.4510    9.8138 N.3     1  UNL1       -0.3207
     24 H          59.2775   90.0635   10.1715 H       1  UNL1        0.1189
     25 H          59.9569   91.0247    8.9930 H       1  UNL1        0.1189
     26 C          62.6452   85.9868    9.8832 C.3     1  UNL1        0.0242
     27 C          60.5924   85.8824    8.2942 C.3     1  UNL1        0.0001
     28 C          62.0276   85.5579    8.5852 C.3     1  UNL1        0.0020
     29 C          62.8453   84.8046    7.5784 C.3     1  UNL1        0.0001
     30 C          64.6500   91.0242   14.8158 C.3     1  UNL1        0.1564
     31 N          65.9497   91.6227   15.2657 N.am    1  UNL1       -0.2727
     32 C          67.2944   91.3766   14.6482 C.3     1  UNL1        0.0943
     33 C          68.3087   92.1742   15.4130 C.3     1  UNL1        0.0311
     34 C          67.5908   92.9134   16.5032 C.3     1  UNL1        0.0870
     35 C          66.1329   92.5725   16.4121 C.2     1  UNL1        0.2260
     36 O          65.0486   93.0905   17.3099 O.2     1  UNL1       -0.2749
     37 C          63.9839   91.5277   13.5697 C.3     1  UNL1        0.0564
     38 C          64.7731   92.3074   12.5601 C.ar    1  UNL1       -0.0094
     39 C          65.6852   93.4099   13.0103 C.ar    1  UNL1       -0.0025
     40 C          66.4744   94.1896   12.0007 C.ar    1  UNL1        0.0111
     41 C          66.3515   93.8669   10.5410 C.ar    1  UNL1        0.0585
     42 CL         67.1407   94.6467    9.5315 Cl      1  UNL1       -0.0822
     43 C          65.4394   92.7644   10.0908 C.ar    1  UNL1        0.0225
     44 C          64.6502   91.9847   11.1004 C.ar    1  UNL1        0.0546
     45 CL         63.7381   90.8823   10.6502 Cl      1  UNL1       -0.0825
@<TRIPOS>BOND
     1    27    28    1
     2    28    29    1
     3    28    26    1
     4    16    26    1
     5    16    17    1
     6    17    18   am
     7    18    19    2
     8    18    21    1
     9    21    22    1
    10    22    23    1
    11    16     9    1
    12     9    10   ar
    13    10    11   ar
    14    11    12    1
    15    11    13   ar
    16    13    14   ar
    17    14    15   ar
    18    15     1    1
    19     1     2    1
    20     2     3    1
    21     3     4    1
    22     4     5   am
    23     5     6    2
    24     5    30    1
    25    30    37    1
    26    37    38    1
    27    38    39   ar
    28    39    40   ar
    29    40    41   ar
    30    41    42    1
    31    41    43   ar
    32    43    44   ar
    33    44    45    1
    34    30    31    1
    35    31    32    1
    36    32    33    1
    37    33    34    1
    38    34    35    1
    39    35    36    2
    40     4     7    1
    41     7     8    1
    42    15     9   ar
    43     8     1    1
    44    44    38   ar
    45    35    31   am
    46    17    20    1
    47    23    24    1
    48    23    25    1
