@<TRIPOS>MOLECULE
*****
 30 32 0 0 0
SMALL
GASTEIGER

@<TRIPOS>ATOM
      1 C          64.4661   91.4897   12.2999 C.ar    1  UNL1        0.1663
      2 C          64.3578   90.4726   13.3971 C.ar    1  UNL1        0.0942
      3 CL         65.1572   90.6388   14.6553 Cl      1  UNL1       -0.0790
      4 C          63.4500   89.2894   13.2360 C.ar    1  UNL1        0.0304
      5 C          62.6505   89.1232   11.9777 C.ar    1  UNL1        0.0667
      6 C          62.7588   90.1403   10.8805 C.ar    1  UNL1        0.0304
      7 C          63.6666   91.3235   11.0415 C.ar    1  UNL1        0.0942
      8 CL         63.7749   92.3405    9.9443 Cl      1  UNL1       -0.0790
      9 N          61.7428   87.9400   11.8167 N.pl3   1  UNL1       -0.2149
     10 H          61.1485   87.6715   12.5542 H       1  UNL1        0.1737
     11 S          61.7405   87.1658   10.5319 S.O2    1  UNL1        0.0744
     12 O          62.0865   88.4157    9.7781 O.2     1  UNL1       -0.1499
     13 O          61.3946   85.9160   11.2857 O.2     1  UNL1       -0.1499
     14 C          61.7382   86.3917    9.2471 C.ar    1  UNL1        0.1357
     15 C          62.9707   85.6550    8.8132 C.ar    1  UNL1        0.0219
     16 C          62.9684   84.8808    7.5284 C.ar    1  UNL1        0.0128
     17 C          61.7336   84.8433    6.6776 C.ar    1  UNL1        0.0586
     18 CL         61.7313   84.0692    5.3928 Cl      1  UNL1       -0.0822
     19 C          60.5011   85.5800    7.1115 C.ar    1  UNL1        0.0241
     20 C          60.5034   86.3542    8.3963 C.ar    1  UNL1        0.0773
     21 CL         59.2709   87.0908    8.8302 Cl      1  UNL1       -0.0808
     22 O          65.3738   92.6729   12.4609 O.3     1  UNL1       -0.4502
     23 C          67.4152   94.4289    9.5456 C.ar    1  UNL1        0.0906
     24 C          68.5736   93.4867    9.4033 C.ar    1  UNL1        0.1093
     25 N          68.6654   92.2732   10.2802 N.ar    1  UNL1       -0.2384
     26 C          67.5988   92.0019   11.2994 C.ar    1  UNL1        0.1363
     27 C          66.4404   92.9442   11.4417 C.ar    1  UNL1        0.1651
     28 C          66.3486   94.1577   10.5648 C.ar    1  UNL1        0.0509
     29 N          67.2316   96.8559    7.7917 N.1     1  UNL1       -0.1908
     30 C          67.3234   95.6424    8.6687 C.1     1  UNL1        0.1021
@<TRIPOS>BOND
     1    29    30    3
     2    30    23    1
     3    23    24   ar
     4    24    25   ar
     5    25    26   ar
     6    26    27   ar
     7    27    22    1
     8    22     1    1
     9     1     2   ar
    10     2     3    1
    11     2     4   ar
    12     4     5   ar
    13     5     9    1
    14     9    11    1
    15    11    12    2
    16    11    13    2
    17    11    14    1
    18    14    15   ar
    19    15    16   ar
    20    16    17   ar
    21    17    18    1
    22    17    19   ar
    23    19    20   ar
    24    20    21    1
    25     5     6   ar
    26     6     7   ar
    27     7     8    1
    28    27    28   ar
    29    28    23   ar
    30     7     1   ar
    31    20    14   ar
    32     9    10    1
@<TRIPOS>MOLECULE
*****
 30 32 0 0 0
SMALL
GASTEIGER

@<TRIPOS>ATOM
      1 C          64.5448   91.4981   12.3576 C.ar    1  UNL1        0.1663
      2 C          63.7390   91.3654   11.0994 C.ar    1  UNL1        0.0942
      3 CL         63.8847   92.3805   10.0048 Cl      1  UNL1       -0.0790
      4 C          62.7874   90.2174   10.9359 C.ar    1  UNL1        0.0304
      5 C          62.6416   89.2023   12.0305 C.ar    1  UNL1        0.0667
      6 C          63.4474   89.3350   13.2886 C.ar    1  UNL1        0.0304
      7 C          64.3990   90.4829   13.4522 C.ar    1  UNL1        0.0942
      8 CL         65.2048   90.6156   14.7104 Cl      1  UNL1       -0.0790
      9 N          61.6900   88.0544   11.8669 N.pl3   1  UNL1       -0.2149
     10 H          61.0673   87.8238   12.5937 H       1  UNL1        0.1737
     11 S          61.6871   87.2579   10.5958 S.O2    1  UNL1        0.0744
     12 O          61.5346   85.9936   11.3885 O.2     1  UNL1       -0.1499
     13 O          61.8396   88.5221    9.8032 O.2     1  UNL1       -0.1499
     14 C          61.6842   86.4613    9.3248 C.ar    1  UNL1        0.1357
     15 C          62.9007   85.6790    8.9272 C.ar    1  UNL1        0.0219
     16 C          62.8978   84.8825    7.6562 C.ar    1  UNL1        0.0128
     17 C          61.6785   84.8683    6.7827 C.ar    1  UNL1        0.0586
     18 CL         61.6756   84.0717    5.5117 Cl      1  UNL1       -0.0822
     19 C          60.4619   85.6506    7.1803 C.ar    1  UNL1        0.0241
     20 C          60.4648   86.4472    8.4513 C.ar    1  UNL1        0.0773
     21 CL         59.2483   87.2295    8.8489 Cl      1  UNL1       -0.0808
     22 O          65.4964   92.6460   12.5212 O.3     1  UNL1       -0.4502
     23 C          67.4916   94.4007    9.5733 C.ar    1  UNL1        0.0906
     24 C          68.6266   93.4380    9.3868 C.ar    1  UNL1        0.1093
     25 N          68.7182   92.2112   10.2451 N.ar    1  UNL1       -0.2384
     26 C          67.6749   91.9472   11.2899 C.ar    1  UNL1        0.1363
     27 C          66.5398   92.9100   11.4764 C.ar    1  UNL1        0.1651
     28 C          66.4482   94.1367   10.6181 C.ar    1  UNL1        0.0509
     29 N          67.3083   96.8542    7.8567 N.1     1  UNL1       -0.1908
     30 C          67.4000   95.6275    8.7150 C.1     1  UNL1        0.1021
@<TRIPOS>BOND
     1    29    30    3
     2    30    23    1
     3    23    24   ar
     4    24    25   ar
     5    25    26   ar
     6    26    27   ar
     7    27    22    1
     8    22     1    1
     9     1     2   ar
    10     2     3    1
    11     2     4   ar
    12     4     5   ar
    13     5     9    1
    14     9    11    1
    15    11    12    2
    16    11    13    2
    17    11    14    1
    18    14    15   ar
    19    15    16   ar
    20    16    17   ar
    21    17    18    1
    22    17    19   ar
    23    19    20   ar
    24    20    21    1
    25     5     6   ar
    26     6     7   ar
    27     7     8    1
    28    27    28   ar
    29    28    23   ar
    30     7     1   ar
    31    20    14   ar
    32     9    10    1
@<TRIPOS>MOLECULE
*****
 30 32 0 0 0
SMALL
GASTEIGER

@<TRIPOS>ATOM
      1 C          64.5083   91.4195   12.6417 C.ar    1  UNL1        0.1663
      2 C          63.7981   91.5146   11.3239 C.ar    1  UNL1        0.0942
      3 CL         64.1898   92.5725   10.3354 Cl      1  UNL1       -0.0790
      4 C          62.6961   90.5516   10.9946 C.ar    1  UNL1        0.0304
      5 C          62.3044   89.4936   11.9831 C.ar    1  UNL1        0.0667
      6 C          63.0146   89.3986   13.3009 C.ar    1  UNL1        0.0304
      7 C          64.1165   90.3615   13.6302 C.ar    1  UNL1        0.0942
      8 CL         64.8267   90.2664   14.9480 Cl      1  UNL1       -0.0790
      9 N          61.2024   88.5307   11.6539 N.pl3   1  UNL1       -0.2149
     10 H          60.3974   88.4918   12.2193 H       1  UNL1        0.1737
     11 S          61.3269   87.6271   10.4631 S.O2    1  UNL1        0.0744
     12 O          61.2615   86.4300   11.3646 O.2     1  UNL1       -0.1499
     13 O          61.3924   88.8241    9.5615 O.2     1  UNL1       -0.1499
     14 C          61.4515   86.7235    9.2723 C.ar    1  UNL1        0.1357
     15 C          62.7582   86.0495    8.9756 C.ar    1  UNL1        0.0219
     16 C          62.8828   85.1459    7.7848 C.ar    1  UNL1        0.0128
     17 C          61.7005   84.9162    6.8907 C.ar    1  UNL1        0.0586
     18 CL         61.8250   84.0126    5.6999 Cl      1  UNL1       -0.0822
     19 C          60.3936   85.5902    7.1874 C.ar    1  UNL1        0.0241
     20 C          60.2691   86.4938    8.3782 C.ar    1  UNL1        0.0773
     21 CL         58.9623   87.1678    8.6748 Cl      1  UNL1       -0.0808
     22 O          65.6102   92.3825   12.9710 O.3     1  UNL1       -0.4502
     23 C          67.8375   93.1035    9.7664 C.ar    1  UNL1        0.0906
     24 C          67.7241   94.5962    9.6724 C.ar    1  UNL1        0.1093
     25 N          66.9062   95.3510   10.6780 N.ar    1  UNL1       -0.2384
     26 C          66.2016   94.6132   11.7775 C.ar    1  UNL1        0.1363
     27 C          66.3149   93.1204   11.8714 C.ar    1  UNL1        0.1651
     28 C          67.1328   92.3656   10.8659 C.ar    1  UNL1        0.0509
     29 N          69.4734   91.5938    7.7552 N.1     1  UNL1       -0.1908
     30 C          68.6554   92.3486    8.7608 C.1     1  UNL1        0.1021
@<TRIPOS>BOND
     1    29    30    3
     2    30    23    1
     3    23    24   ar
     4    24    25   ar
     5    25    26   ar
     6    26    27   ar
     7    27    22    1
     8    22     1    1
     9     1     2   ar
    10     2     3    1
    11     2     4   ar
    12     4     5   ar
    13     5     9    1
    14     9    11    1
    15    11    12    2
    16    11    13    2
    17    11    14    1
    18    14    15   ar
    19    15    16   ar
    20    16    17   ar
    21    17    18    1
    22    17    19   ar
    23    19    20   ar
    24    20    21    1
    25     5     6   ar
    26     6     7   ar
    27     7     8    1
    28    27    28   ar
    29    28    23   ar
    30     7     1   ar
    31    20    14   ar
    32     9    10    1
@<TRIPOS>MOLECULE
*****
 30 32 0 0 0
SMALL
GASTEIGER

@<TRIPOS>ATOM
      1 C          64.0867   90.5284   13.0594 C.ar    1  UNL1        0.1663
      2 C          64.6145   90.2382   14.4332 C.ar    1  UNL1        0.0942
      3 CL         65.2128   91.3410   15.2552 Cl      1  UNL1       -0.0790
      4 C          64.5439   88.8451   14.9849 C.ar    1  UNL1        0.0304
      5 C          63.9456   87.7423   14.1629 C.ar    1  UNL1        0.0667
      6 C          63.4178   88.0325   12.7892 C.ar    1  UNL1        0.0304
      7 C          63.4883   89.4255   12.2374 C.ar    1  UNL1        0.0942
      8 CL         62.9606   89.7157   10.8636 Cl      1  UNL1       -0.0790
      9 N          63.8751   86.3493   14.7147 N.pl3   1  UNL1       -0.2149
     10 H          63.9310   86.2013   15.6864 H       1  UNL1        0.1737
     11 S          63.7192   85.1817   13.7860 S.O2    1  UNL1        0.0744
     12 O          62.3003   85.5861   13.5156 O.2     1  UNL1       -0.1499
     13 O          65.1382   84.7773   14.0564 O.2     1  UNL1       -0.1499
     14 C          63.5634   84.0141   12.8573 C.ar    1  UNL1        0.1357
     15 C          64.0618   84.1070   11.4456 C.ar    1  UNL1        0.0219
     16 C          63.9060   82.9394   10.5169 C.ar    1  UNL1        0.0128
     17 C          63.2518   81.6790   10.9998 C.ar    1  UNL1        0.0586
     18 CL         63.0960   80.5114   10.0711 Cl      1  UNL1       -0.0822
     19 C          62.7534   81.5861   12.4116 C.ar    1  UNL1        0.0241
     20 C          62.9092   82.7536   13.3403 C.ar    1  UNL1        0.0773
     21 CL         62.4109   82.6608   14.7521 Cl      1  UNL1       -0.0808
     22 O          64.1572   91.9214   12.5077 O.3     1  UNL1       -0.4502
     23 C          66.5490   93.9214   10.0521 C.ar    1  UNL1        0.0906
     24 C          67.8787   93.3211   10.4003 C.ar    1  UNL1        0.1093
     25 N          67.9681   92.2543   11.4509 N.ar    1  UNL1       -0.2384
     26 C          66.7276   91.7877   12.1534 C.ar    1  UNL1        0.1363
     27 C          65.3978   92.3880   11.8052 C.ar    1  UNL1        0.1651
     28 C          65.3085   93.4548   10.7546 C.ar    1  UNL1        0.0509
     29 N          66.3703   96.0551    7.9509 N.1     1  UNL1       -0.1908
     30 C          66.4597   94.9883    9.0015 C.1     1  UNL1        0.1021
@<TRIPOS>BOND
     1    29    30    3
     2    30    23    1
     3    23    24   ar
     4    24    25   ar
     5    25    26   ar
     6    26    27   ar
     7    27    22    1
     8    22     1    1
     9     1     2   ar
    10     2     3    1
    11     2     4   ar
    12     4     5   ar
    13     5     9    1
    14     9    11    1
    15    11    12    2
    16    11    13    2
    17    11    14    1
    18    14    15   ar
    19    15    16   ar
    20    16    17   ar
    21    17    18    1
    22    17    19   ar
    23    19    20   ar
    24    20    21    1
    25     5     6   ar
    26     6     7   ar
    27     7     8    1
    28    27    28   ar
    29    28    23   ar
    30     7     1   ar
    31    20    14   ar
    32     9    10    1
@<TRIPOS>MOLECULE
*****
 30 32 0 0 0
SMALL
GASTEIGER

@<TRIPOS>ATOM
      1 C          63.4658   89.6648   13.6951 C.ar    1  UNL1        0.1663
      2 C          63.3742   88.5856   12.6574 C.ar    1  UNL1        0.0942
      3 CL         63.1485   88.9455   11.2189 Cl      1  UNL1       -0.0790
      4 C          63.5082   87.1463   13.0583 C.ar    1  UNL1        0.0304
      5 C          63.7339   86.7864   14.4969 C.ar    1  UNL1        0.0667
      6 C          63.8256   87.8656   15.5346 C.ar    1  UNL1        0.0304
      7 C          63.6915   89.3048   15.1337 C.ar    1  UNL1        0.0942
      8 CL         63.7832   90.3841   16.1714 Cl      1  UNL1       -0.0790
      9 N          63.8680   85.3472   14.8977 N.pl3   1  UNL1       -0.2149
     10 H          64.0739   85.1134   15.8316 H       1  UNL1        0.1737
     11 S          63.6882   84.2641   13.8756 S.O2    1  UNL1        0.0744
     12 O          62.2622   84.6859   13.6794 O.2     1  UNL1       -0.1499
     13 O          65.1143   83.8423   14.0719 O.2     1  UNL1       -0.1499
     14 C          63.5085   83.1810   12.8536 C.ar    1  UNL1        0.1357
     15 C          64.0872   83.3431   11.4793 C.ar    1  UNL1        0.0219
     16 C          63.9075   82.2601   10.4572 C.ar    1  UNL1        0.0128
     17 C          63.1491   81.0148   10.8095 C.ar    1  UNL1        0.0586
     18 CL         62.9694   79.9317    9.7874 Cl      1  UNL1       -0.0822
     19 C          62.5703   80.8526   12.1838 C.ar    1  UNL1        0.0241
     20 C          62.7500   81.9357   13.2059 C.ar    1  UNL1        0.0773
     21 CL         62.1713   81.7736   14.5802 Cl      1  UNL1       -0.0808
     22 O          63.3318   91.1040   13.2943 O.3     1  UNL1       -0.4502
     23 C          66.8577   92.9204   13.4328 C.ar    1  UNL1        0.0906
     24 C          66.9668   93.4349   12.0280 C.ar    1  UNL1        0.1093
     25 N          65.8643   93.1725   11.0454 N.ar    1  UNL1       -0.2384
     26 C          64.6526   92.3955   11.4674 C.ar    1  UNL1        0.1363
     27 C          64.5435   91.8810   12.8721 C.ar    1  UNL1        0.1651
     28 C          65.6460   92.1434   13.8548 C.ar    1  UNL1        0.0509
     29 N          69.0627   93.4452   15.3981 N.1     1  UNL1       -0.1908
     30 C          67.9602   93.1828   14.4154 C.1     1  UNL1        0.1021
@<TRIPOS>BOND
     1    29    30    3
     2    30    23    1
     3    23    24   ar
     4    24    25   ar
     5    25    26   ar
     6    26    27   ar
     7    27    22    1
     8    22     1    1
     9     1     2   ar
    10     2     3    1
    11     2     4   ar
    12     4     5   ar
    13     5     9    1
    14     9    11    1
    15    11    12    2
    16    11    13    2
    17    11    14    1
    18    14    15   ar
    19    15    16   ar
    20    16    17   ar
    21    17    18    1
    22    17    19   ar
    23    19    20   ar
    24    20    21    1
    25     5     6   ar
    26     6     7   ar
    27     7     8    1
    28    27    28   ar
    29    28    23   ar
    30     7     1   ar
    31    20    14   ar
    32     9    10    1
@<TRIPOS>MOLECULE
*****
 30 32 0 0 0
SMALL
GASTEIGER

@<TRIPOS>ATOM
      1 C          62.6697   88.8210   12.2174 C.ar    1  UNL1        0.1663
      2 C          62.5431   90.1084   11.4580 C.ar    1  UNL1        0.0942
      3 CL         61.5065   90.2459   10.3826 Cl      1  UNL1       -0.0790
      4 C          63.4532   91.2582   11.7740 C.ar    1  UNL1        0.0304
      5 C          64.4898   91.1206   12.8493 C.ar    1  UNL1        0.0667
      6 C          64.6164   89.8332   13.6087 C.ar    1  UNL1        0.0304
      7 C          63.7064   88.6834   13.2928 C.ar    1  UNL1        0.0942
      8 CL         63.8330   87.3961   14.0522 Cl      1  UNL1       -0.0790
      9 N          65.3998   92.2703   13.1653 N.pl3   1  UNL1       -0.2149
     10 H          65.6967   92.4231   14.0914 H       1  UNL1        0.1737
     11 S          65.8576   93.1874   12.0701 S.O2    1  UNL1        0.0744
     12 O          64.9693   92.4696   11.0977 O.2     1  UNL1       -0.1499
     13 O          66.7459   93.9053   13.0425 O.2     1  UNL1       -0.1499
     14 C          66.3153   94.1045   10.9749 C.ar    1  UNL1        0.1357
     15 C          65.7356   95.4831   10.8599 C.ar    1  UNL1        0.0219
     16 C          66.1934   96.4003    9.7647 C.ar    1  UNL1        0.0128
     17 C          67.2309   95.9387    8.7846 C.ar    1  UNL1        0.0586
     18 CL         67.6886   96.8558    7.6895 Cl      1  UNL1       -0.0822
     19 C          67.8106   94.5601    8.8997 C.ar    1  UNL1        0.0241
     20 C          67.3529   93.6430    9.9948 C.ar    1  UNL1        0.0773
     21 CL         67.9326   92.2643   10.1099 Cl      1  UNL1       -0.0808
     22 O          61.7597   87.6712   11.9014 O.3     1  UNL1       -0.4502
     23 C          63.1067   84.1074   10.7902 C.ar    1  UNL1        0.0906
     24 C          63.2165   84.2960    9.3062 C.ar    1  UNL1        0.1093
     25 N          62.8408   85.6097    8.6872 N.ar    1  UNL1       -0.2384
     26 C          62.3552   86.7347    9.5523 C.ar    1  UNL1        0.1363
     27 C          62.2453   86.5461   11.0363 C.ar    1  UNL1        0.1651
     28 C          62.6211   85.2325   11.6552 C.ar    1  UNL1        0.0509
     29 N          63.8581   81.4801   12.0281 N.1     1  UNL1       -0.1908
     30 C          63.4824   82.7937   11.4091 C.1     1  UNL1        0.1021
@<TRIPOS>BOND
     1    29    30    3
     2    30    23    1
     3    23    24   ar
     4    24    25   ar
     5    25    26   ar
     6    26    27   ar
     7    27    22    1
     8    22     1    1
     9     1     2   ar
    10     2     3    1
    11     2     4   ar
    12     4     5   ar
    13     5     9    1
    14     9    11    1
    15    11    12    2
    16    11    13    2
    17    11    14    1
    18    14    15   ar
    19    15    16   ar
    20    16    17   ar
    21    17    18    1
    22    17    19   ar
    23    19    20   ar
    24    20    21    1
    25     5     6   ar
    26     6     7   ar
    27     7     8    1
    28    27    28   ar
    29    28    23   ar
    30     7     1   ar
    31    20    14   ar
    32     9    10    1
@<TRIPOS>MOLECULE
*****
 30 32 0 0 0
SMALL
GASTEIGER

@<TRIPOS>ATOM
      1 C          61.9958   87.1880   11.2109 C.ar    1  UNL1        0.1663
      2 C          61.5382   88.1569   10.1613 C.ar    1  UNL1        0.0942
      3 CL         60.5560   87.7206    9.1149 Cl      1  UNL1       -0.0790
      4 C          62.0628   89.5622   10.1581 C.ar    1  UNL1        0.0304
      5 C          63.0449   89.9986   11.2044 C.ar    1  UNL1        0.0667
      6 C          63.5026   89.0296   12.2541 C.ar    1  UNL1        0.0304
      7 C          62.9781   87.6244   12.2574 C.ar    1  UNL1        0.0942
      8 CL         63.4357   86.6554   13.3070 Cl      1  UNL1       -0.0790
      9 N          63.5695   91.4038   11.2012 N.pl3   1  UNL1       -0.2149
     10 H          63.2284   92.0550   10.5463 H       1  UNL1        0.1737
     11 S          64.6136   91.8170   12.1957 S.O2    1  UNL1        0.0744
     12 O          65.6191   91.9389   11.0893 O.2     1  UNL1       -0.1499
     13 O          63.6081   91.6951   13.3021 O.2     1  UNL1       -0.1499
     14 C          65.6578   92.2301   13.1902 C.ar    1  UNL1        0.1357
     15 C          66.0770   91.2827   14.2748 C.ar    1  UNL1        0.0219
     16 C          67.1212   91.6958   15.2693 C.ar    1  UNL1        0.0128
     17 C          67.7461   93.0564   15.1792 C.ar    1  UNL1        0.0586
     18 CL         68.7903   93.4695   16.1737 Cl      1  UNL1       -0.0822
     19 C          67.3269   94.0039   14.0945 C.ar    1  UNL1        0.0241
     20 C          66.2827   93.5908   13.1000 C.ar    1  UNL1        0.0773
     21 CL         65.8635   94.5383   12.0153 Cl      1  UNL1       -0.0808
     22 O          61.4713   85.7827   11.2142 O.3     1  UNL1       -0.4502
     23 C          63.4577   82.4527   12.0603 C.ar    1  UNL1        0.0906
     24 C          64.3178   82.3177   10.8389 C.ar    1  UNL1        0.1093
     25 N          64.2292   83.3376    9.7426 N.ar    1  UNL1       -0.2384
     26 C          63.2804   84.4926    9.8677 C.ar    1  UNL1        0.1363
     27 C          62.4202   84.6277   11.0891 C.ar    1  UNL1        0.1651
     28 C          62.5089   83.6077   12.1854 C.ar    1  UNL1        0.0509
     29 N          63.6350   80.4129   14.2529 N.1     1  UNL1       -0.1908
     30 C          63.5463   81.4328   13.1566 C.1     1  UNL1        0.1021
@<TRIPOS>BOND
     1    29    30    3
     2    30    23    1
     3    23    24   ar
     4    24    25   ar
     5    25    26   ar
     6    26    27   ar
     7    27    22    1
     8    22     1    1
     9     1     2   ar
    10     2     3    1
    11     2     4   ar
    12     4     5   ar
    13     5     9    1
    14     9    11    1
    15    11    12    2
    16    11    13    2
    17    11    14    1
    18    14    15   ar
    19    15    16   ar
    20    16    17   ar
    21    17    18    1
    22    17    19   ar
    23    19    20   ar
    24    20    21    1
    25     5     6   ar
    26     6     7   ar
    27     7     8    1
    28    27    28   ar
    29    28    23   ar
    30     7     1   ar
    31    20    14   ar
    32     9    10    1
@<TRIPOS>MOLECULE
*****
 30 32 0 0 0
SMALL
GASTEIGER

@<TRIPOS>ATOM
      1 C          63.5258   89.6510   14.5608 C.ar    1  UNL1        0.1663
      2 C          63.6315   88.6204   13.4760 C.ar    1  UNL1        0.0942
      3 CL         63.6470   89.0447   12.0374 Cl      1  UNL1       -0.0790
      4 C          63.7217   87.1655   13.8299 C.ar    1  UNL1        0.0304
      5 C          63.7062   86.7412   15.2686 C.ar    1  UNL1        0.0667
      6 C          63.6005   87.7718   16.3533 C.ar    1  UNL1        0.0304
      7 C          63.5104   89.2266   15.9995 C.ar    1  UNL1        0.0942
      8 CL         63.4047   90.2572   17.0843 Cl      1  UNL1       -0.0790
      9 N          63.7964   85.2864   15.6224 N.pl3   1  UNL1       -0.2149
     10 H          63.9899   85.0163   16.5491 H       1  UNL1        0.1737
     11 S          63.5919   84.2431   14.5643 S.O2    1  UNL1        0.0744
     12 O          62.1094   84.3130   14.7819 O.2     1  UNL1       -0.1499
     13 O          65.0743   84.1731   14.3467 O.2     1  UNL1       -0.1499
     14 C          63.3873   83.1997   13.5062 C.ar    1  UNL1        0.1357
     15 C          63.4414   81.7448   13.8671 C.ar    1  UNL1        0.0219
     16 C          63.2369   80.7015   12.8089 C.ar    1  UNL1        0.0128
     17 C          62.9781   81.1131   11.3899 C.ar    1  UNL1        0.0586
     18 CL         62.7735   80.0697   10.3318 Cl      1  UNL1       -0.0822
     19 C          62.9239   82.5680   11.0290 C.ar    1  UNL1        0.0241
     20 C          63.1285   83.6114   12.0871 C.ar    1  UNL1        0.0773
     21 CL         63.0744   85.0663   11.7262 Cl      1  UNL1       -0.0808
     22 O          63.4356   91.1058   14.2069 O.3     1  UNL1       -0.4502
     23 C          66.2566   93.0955   12.2490 C.ar    1  UNL1        0.0906
     24 C          67.1820   93.4552   13.3733 C.ar    1  UNL1        0.1093
     25 N          66.8587   93.0317   14.7755 N.ar    1  UNL1       -0.2384
     26 C          65.6100   92.2486   15.0534 C.ar    1  UNL1        0.1363
     27 C          64.6845   91.8889   13.9291 C.ar    1  UNL1        0.1651
     28 C          65.0078   92.3124   12.5269 C.ar    1  UNL1        0.0509
     29 N          66.9031   93.9424    9.4446 N.1     1  UNL1       -0.1908
     30 C          66.5798   93.5190   10.8468 C.1     1  UNL1        0.1021
@<TRIPOS>BOND
     1    29    30    3
     2    30    23    1
     3    23    24   ar
     4    24    25   ar
     5    25    26   ar
     6    26    27   ar
     7    27    22    1
     8    22     1    1
     9     1     2   ar
    10     2     3    1
    11     2     4   ar
    12     4     5   ar
    13     5     9    1
    14     9    11    1
    15    11    12    2
    16    11    13    2
    17    11    14    1
    18    14    15   ar
    19    15    16   ar
    20    16    17   ar
    21    17    18    1
    22    17    19   ar
    23    19    20   ar
    24    20    21    1
    25     5     6   ar
    26     6     7   ar
    27     7     8    1
    28    27    28   ar
    29    28    23   ar
    30     7     1   ar
    31    20    14   ar
    32     9    10    1
@<TRIPOS>MOLECULE
*****
 30 32 0 0 0
SMALL
GASTEIGER

@<TRIPOS>ATOM
      1 C          64.4501   91.7244   12.6427 C.ar    1  UNL1        0.1663
      2 C          63.8528   91.5868   11.2737 C.ar    1  UNL1        0.0942
      3 CL         64.2432   92.5426   10.1856 Cl      1  UNL1       -0.0790
      4 C          62.8650   90.4934   10.9928 C.ar    1  UNL1        0.0304
      5 C          62.4746   89.5377   12.0809 C.ar    1  UNL1        0.0667
      6 C          63.0720   89.6752   13.4500 C.ar    1  UNL1        0.0304
      7 C          64.0597   90.7686   13.7309 C.ar    1  UNL1        0.0942
      8 CL         64.6571   90.9061   15.0999 Cl      1  UNL1       -0.0790
      9 N          61.4868   88.4444   11.8000 N.pl3   1  UNL1       -0.2149
     10 H          60.5223   88.6416   11.7954 H       1  UNL1        0.1737
     11 S          61.9686   87.0505   11.5261 S.O2    1  UNL1        0.0744
     12 O          60.7228   86.7749   10.7375 O.2     1  UNL1       -0.1499
     13 O          63.2144   87.3261   12.3148 O.2     1  UNL1       -0.1499
     14 C          62.4504   85.6566   11.2523 C.ar    1  UNL1        0.1357
     15 C          62.5452   84.6624   12.3713 C.ar    1  UNL1        0.0219
     16 C          63.0269   83.2685   12.0975 C.ar    1  UNL1        0.0128
     17 C          63.4140   82.8689   10.7045 C.ar    1  UNL1        0.0586
     18 CL         63.8958   81.4750   10.4306 Cl      1  UNL1       -0.0822
     19 C          63.3193   83.8632    9.5853 C.ar    1  UNL1        0.0241
     20 C          62.8375   85.2570    9.8592 C.ar    1  UNL1        0.0773
     21 CL         62.7427   86.2513    8.7401 Cl      1  UNL1       -0.0808
     22 O          65.4379   92.8177   12.9236 O.3     1  UNL1       -0.4502
     23 C          67.7512   93.2843    9.7328 C.ar    1  UNL1        0.0906
     24 C          67.6607   94.7679    9.5316 C.ar    1  UNL1        0.1093
     25 N          66.8293   95.6015   10.4610 N.ar    1  UNL1       -0.2384
     26 C          66.0883   94.9515   11.5917 C.ar    1  UNL1        0.1363
     27 C          66.1788   93.4678   11.7929 C.ar    1  UNL1        0.1651
     28 C          67.0103   92.6342   10.8635 C.ar    1  UNL1        0.0509
     29 N          69.4140   91.6170    7.8740 N.1     1  UNL1       -0.1908
     30 C          68.5826   92.4506    8.8034 C.1     1  UNL1        0.1021
@<TRIPOS>BOND
     1    29    30    3
     2    30    23    1
     3    23    24   ar
     4    24    25   ar
     5    25    26   ar
     6    26    27   ar
     7    27    22    1
     8    22     1    1
     9     1     2   ar
    10     2     3    1
    11     2     4   ar
    12     4     5   ar
    13     5     9    1
    14     9    11    1
    15    11    12    2
    16    11    13    2
    17    11    14    1
    18    14    15   ar
    19    15    16   ar
    20    16    17   ar
    21    17    18    1
    22    17    19   ar
    23    19    20   ar
    24    20    21    1
    25     5     6   ar
    26     6     7   ar
    27     7     8    1
    28    27    28   ar
    29    28    23   ar
    30     7     1   ar
    31    20    14   ar
    32     9    10    1
