@<TRIPOS>MOLECULE
*****
 27 30 0 0 0
SMALL
GASTEIGER

@<TRIPOS>ATOM
      1 C          66.1132   94.0080   11.9368 C.2     1  UNL1        0.0919
      2 C          66.6664   94.4055   13.2732 C.2     1  UNL1        0.0183
      3 C          66.4713   93.5116   14.4618 C.2     1  UNL1        0.0511
      4 C          65.7230   92.2200   14.3140 C.2     1  UNL1        0.2322
      5 N          65.3759   91.1428   15.2985 N.2     1  UNL1       -0.0308
      6 C          64.6081   90.0795   14.5706 C.2     1  UNL1        0.3752
      7 N          64.4807   90.4995   13.1362 N.2     1  UNL1       -0.0347
      8 C          65.1697   91.8225   12.9777 C.2     1  UNL1        0.2191
      9 C          65.3648   92.7164   11.7891 C.3     1  UNL1        0.1226
     10 C          64.0634   88.8176   15.1715 C.ar    1  UNL1        0.0885
     11 C          63.4460   88.8436   16.5383 C.ar    1  UNL1        0.0100
     12 C          62.9013   87.5818   17.1393 C.ar    1  UNL1        0.0299
     13 C          62.9740   86.2941   16.3735 C.ar    1  UNL1        0.1401
     14 F          62.4293   85.0323   16.9745 F       1  UNL1       -0.2042
     15 C          63.5914   86.2682   15.0067 C.ar    1  UNL1        0.0277
     16 C          64.1361   87.5299   14.4057 C.ar    1  UNL1        0.0099
     17 C          63.6641   84.9804   14.2409 C.ar    1  UNL1        0.0022
     18 C          63.1679   84.9198   12.8267 C.ar    1  UNL1        0.0001
     19 C          63.2406   83.6320   12.0610 C.ar    1  UNL1        0.0000
     20 C          63.8095   82.4049   12.7095 C.ar    1  UNL1        0.0000
     21 C          64.3058   82.4656   14.1237 C.ar    1  UNL1        0.0000
     22 C          64.2331   83.7533   14.8894 C.ar    1  UNL1        0.0001
     23 S          66.3083   94.9019   10.7482 S.O2    1  UNL1        0.0054
     24 O          66.5227   93.6988    9.8785 O.2     1  UNL1       -0.1689
     25 O          66.0938   96.1051   11.6180 O.2     1  UNL1       -0.1689
     26 C          67.5428   95.4606    8.5316 C.3     1  UNL1        0.0276
     27 C          66.5034   95.7959    9.5596 C.3     1  UNL1        0.1556
@<TRIPOS>BOND
     1    26    27    1
     2    27    23    1
     3    23    24    2
     4    23    25    2
     5    23     1    1
     6     1     2    2
     7     2     3    1
     8     3     4    2
     9     4     5    1
    10     5     6    2
    11     6    10    1
    12    10    11   ar
    13    11    12   ar
    14    12    13   ar
    15    13    14    1
    16    13    15   ar
    17    15    17    1
    18    17    18   ar
    19    18    19   ar
    20    19    20   ar
    21    20    21   ar
    22    21    22   ar
    23    15    16   ar
    24     6     7    1
    25     7     8    2
    26     8     9    1
    27     9     1    1
    28     8     4    1
    29    16    10   ar
    30    22    17   ar
@<TRIPOS>MOLECULE
*****
 27 30 0 0 0
SMALL
GASTEIGER

@<TRIPOS>ATOM
      1 C          63.4909   82.1963   12.2570 C.2     1  UNL1        0.0919
      2 C          63.9130   81.6969   13.6069 C.2     1  UNL1        0.0183
      3 C          64.1479   82.6677   14.7261 C.2     1  UNL1        0.0511
      4 C          63.9607   84.1379   14.4952 C.2     1  UNL1        0.2322
      5 N          64.1173   85.3239   15.4001 N.2     1  UNL1       -0.0308
      6 C          63.7920   86.5564   14.6094 C.2     1  UNL1        0.3752
      7 N          63.4343   86.1321   13.2159 N.2     1  UNL1       -0.0347
      8 C          63.5386   84.6374   13.1453 C.2     1  UNL1        0.2191
      9 C          63.3037   83.6666   12.0262 C.3     1  UNL1        0.1226
     10 C          63.8196   87.9658   15.1223 C.ar    1  UNL1        0.0885
     11 C          63.2215   88.2891   16.4594 C.ar    1  UNL1        0.0100
     12 C          63.2490   89.6984   16.9723 C.ar    1  UNL1        0.0299
     13 C          63.8746   90.7844   16.1481 C.ar    1  UNL1        0.1401
     14 F          63.9022   92.1937   16.6610 F       1  UNL1       -0.2042
     15 C          64.4727   90.4610   14.8111 C.ar    1  UNL1        0.0277
     16 C          64.4452   89.0517   14.2982 C.ar    1  UNL1        0.0099
     17 C          65.0983   91.5471   13.9869 C.ar    1  UNL1        0.0022
     18 C          66.1028   92.4737   14.6053 C.ar    1  UNL1        0.0001
     19 C          66.7283   93.5596   13.7811 C.ar    1  UNL1        0.0000
     20 C          66.3495   93.7190   12.3386 C.ar    1  UNL1        0.0000
     21 C          65.3451   92.7924   11.7201 C.ar    1  UNL1        0.0000
     22 C          64.7195   91.7064   12.5443 C.ar    1  UNL1        0.0001
     23 S          63.2560   81.2256   11.1379 S.O2    1  UNL1        0.0054
     24 O          63.8114   82.2183   10.1602 O.2     1  UNL1       -0.1689
     25 O          62.7005   80.2328   12.1157 O.2     1  UNL1       -0.1689
     26 C          62.7594   78.8093   10.3223 C.3     1  UNL1        0.0276
     27 C          63.0210   80.2548   10.0188 C.3     1  UNL1        0.1556
@<TRIPOS>BOND
     1    26    27    1
     2    27    23    1
     3    23    24    2
     4    23    25    2
     5    23     1    1
     6     1     2    2
     7     2     3    1
     8     3     4    2
     9     4     5    1
    10     5     6    2
    11     6    10    1
    12    10    11   ar
    13    11    12   ar
    14    12    13   ar
    15    13    14    1
    16    13    15   ar
    17    15    17    1
    18    17    18   ar
    19    18    19   ar
    20    19    20   ar
    21    20    21   ar
    22    21    22   ar
    23    15    16   ar
    24     6     7    1
    25     7     8    2
    26     8     9    1
    27     9     1    1
    28     8     4    1
    29    16    10   ar
    30    22    17   ar
@<TRIPOS>MOLECULE
*****
 27 30 0 0 0
SMALL
GASTEIGER

@<TRIPOS>ATOM
      1 C          66.6583   92.4919   14.1106 C.2     1  UNL1        0.0919
      2 C          66.5565   93.4198   12.9365 C.2     1  UNL1        0.0183
      3 C          65.5548   93.1510   11.8528 C.2     1  UNL1        0.0511
      4 C          64.6548   91.9544   11.9433 C.2     1  UNL1        0.2322
      5 N          63.5792   91.4365   11.0351 N.2     1  UNL1       -0.0308
      6 C          63.0162   90.1885   11.6480 C.2     1  UNL1        0.3752
      7 N          63.7439   89.9352   12.9350 N.2     1  UNL1       -0.0347
      8 C          64.7566   91.0266   13.1175 C.2     1  UNL1        0.2191
      9 C          65.7583   91.2953   14.2011 C.3     1  UNL1        0.1226
     10 C          61.9182   89.3425   11.0746 C.ar    1  UNL1        0.0885
     11 C          60.5003   89.5537   11.5161 C.ar    1  UNL1        0.0100
     12 C          59.4024   88.7077   10.9427 C.ar    1  UNL1        0.0299
     13 C          59.7224   87.6506    9.9278 C.ar    1  UNL1        0.1401
     14 F          58.6244   86.8045    9.3543 F       1  UNL1       -0.2042
     15 C          61.1403   87.4394    9.4863 C.ar    1  UNL1        0.0277
     16 C          62.2382   88.2854   10.0597 C.ar    1  UNL1        0.0099
     17 C          61.4602   86.3822    8.4713 C.ar    1  UNL1        0.0022
     18 C          62.8011   85.7100    8.4858 C.ar    1  UNL1        0.0001
     19 C          63.1210   84.6529    7.4709 C.ar    1  UNL1        0.0000
     20 C          62.1000   84.2680    6.4415 C.ar    1  UNL1        0.0000
     21 C          60.7592   84.9402    6.4271 C.ar    1  UNL1        0.0000
     22 C          60.4393   85.9973    7.4420 C.ar    1  UNL1        0.0001
     23 S          67.6600   92.7607   15.1943 S.O2    1  UNL1        0.0054
     24 O          68.7656   92.7249   14.1812 O.2     1  UNL1       -0.1689
     25 O          66.5544   92.7964   16.2074 O.2     1  UNL1       -0.1689
     26 C          69.5418   94.2417   16.2019 C.3     1  UNL1        0.0276
     27 C          68.6617   93.0294   16.2780 C.3     1  UNL1        0.1556
@<TRIPOS>BOND
     1    26    27    1
     2    27    23    1
     3    23    24    2
     4    23    25    2
     5    23     1    1
     6     1     2    2
     7     2     3    1
     8     3     4    2
     9     4     5    1
    10     5     6    2
    11     6    10    1
    12    10    11   ar
    13    11    12   ar
    14    12    13   ar
    15    13    14    1
    16    13    15   ar
    17    15    17    1
    18    17    18   ar
    19    18    19   ar
    20    19    20   ar
    21    20    21   ar
    22    21    22   ar
    23    15    16   ar
    24     6     7    1
    25     7     8    2
    26     8     9    1
    27     9     1    1
    28     8     4    1
    29    16    10   ar
    30    22    17   ar
@<TRIPOS>MOLECULE
*****
 27 30 0 0 0
SMALL
GASTEIGER

@<TRIPOS>ATOM
      1 C          62.6918   84.3104   13.3468 C.2     1  UNL1        0.0919
      2 C          62.0826   84.8047   12.0684 C.2     1  UNL1        0.0183
      3 C          62.2770   86.2311   11.6472 C.2     1  UNL1        0.0511
      4 C          63.0807   87.1634   12.5045 C.2     1  UNL1        0.2322
      5 N          63.4405   88.6112   12.3490 N.2     1  UNL1       -0.0308
      6 C          64.2721   89.0119   13.5314 C.2     1  UNL1        0.3752
      7 N          64.4262   87.8116   14.4177 N.2     1  UNL1       -0.0347
      8 C          63.6899   86.6691   13.7830 C.2     1  UNL1        0.2191
      9 C          63.4955   85.2427   14.2042 C.3     1  UNL1        0.1226
     10 C          64.8483   90.3737   13.7832 C.ar    1  UNL1        0.0885
     11 C          64.9367   90.9034   15.1838 C.ar    1  UNL1        0.0100
     12 C          65.5129   92.2652   15.4356 C.ar    1  UNL1        0.0299
     13 C          66.0007   93.0973   14.2869 C.ar    1  UNL1        0.1401
     14 F          66.5770   94.4592   14.5388 F       1  UNL1       -0.2042
     15 C          65.9124   92.5676   12.8864 C.ar    1  UNL1        0.0277
     16 C          65.3362   91.2058   12.6345 C.ar    1  UNL1        0.0099
     17 C          66.4003   93.3997   11.7376 C.ar    1  UNL1        0.0022
     18 C          67.1506   92.7552   10.6100 C.ar    1  UNL1        0.0001
     19 C          67.6385   93.5873    9.4614 C.ar    1  UNL1        0.0000
     20 C          67.3761   95.0640    9.4403 C.ar    1  UNL1        0.0000
     21 C          66.6258   95.7086   10.5679 C.ar    1  UNL1        0.0000
     22 C          66.1379   94.8764   11.7166 C.ar    1  UNL1        0.0001
     23 S          62.4974   82.8840   13.7680 S.O2    1  UNL1        0.0054
     24 O          62.5556   83.3011   15.2077 O.2     1  UNL1       -0.1689
     25 O          62.4392   82.4668   12.3283 O.2     1  UNL1       -0.1689
     26 C          60.9516   80.8177   14.0696 C.3     1  UNL1        0.0276
     27 C          62.3030   81.4575   14.1891 C.3     1  UNL1        0.1556
@<TRIPOS>BOND
     1    26    27    1
     2    27    23    1
     3    23    24    2
     4    23    25    2
     5    23     1    1
     6     1     2    2
     7     2     3    1
     8     3     4    2
     9     4     5    1
    10     5     6    2
    11     6    10    1
    12    10    11   ar
    13    11    12   ar
    14    12    13   ar
    15    13    14    1
    16    13    15   ar
    17    15    17    1
    18    17    18   ar
    19    18    19   ar
    20    19    20   ar
    21    20    21   ar
    22    21    22   ar
    23    15    16   ar
    24     6     7    1
    25     7     8    2
    26     8     9    1
    27     9     1    1
    28     8     4    1
    29    16    10   ar
    30    22    17   ar
@<TRIPOS>MOLECULE
*****
 27 30 0 0 0
SMALL
GASTEIGER

@<TRIPOS>ATOM
      1 C          65.7812   93.8826   11.1158 C.2     1  UNL1        0.0919
      2 C          64.8859   93.2387   10.0991 C.2     1  UNL1        0.0183
      3 C          64.1390   91.9846   10.4446 C.2     1  UNL1        0.0511
      4 C          64.2874   91.3744   11.8068 C.2     1  UNL1        0.2322
      5 N          63.6822   90.1517   12.4303 N.2     1  UNL1       -0.0308
      6 C          64.2034   90.0400   13.8323 C.2     1  UNL1        0.3752
      7 N          65.1308   91.1935   14.0754 N.2     1  UNL1       -0.0347
      8 C          65.1827   92.0183   12.8235 C.2     1  UNL1        0.2191
      9 C          65.9296   93.2724   12.4780 C.3     1  UNL1        0.1226
     10 C          63.8579   88.9635   14.8183 C.ar    1  UNL1        0.0885
     11 C          63.4952   89.3260   16.2279 C.ar    1  UNL1        0.0100
     12 C          63.1497   88.2496   17.2138 C.ar    1  UNL1        0.0299
     13 C          63.1668   86.8109   16.7901 C.ar    1  UNL1        0.1401
     14 F          62.8213   85.7344   17.7760 F       1  UNL1       -0.2042
     15 C          63.5295   86.4484   15.3805 C.ar    1  UNL1        0.0277
     16 C          63.8750   87.5248   14.3946 C.ar    1  UNL1        0.0099
     17 C          63.5467   85.0096   14.9568 C.ar    1  UNL1        0.0022
     18 C          64.7251   84.4624   14.2073 C.ar    1  UNL1        0.0001
     19 C          64.7422   83.0236   13.7836 C.ar    1  UNL1        0.0000
     20 C          63.5809   82.1320   14.1094 C.ar    1  UNL1        0.0000
     21 C          62.4024   82.6791   14.8589 C.ar    1  UNL1        0.0000
     22 C          62.3853   84.1179   15.2826 C.ar    1  UNL1        0.0001
     23 S          66.5281   95.1367   10.7704 S.O2    1  UNL1        0.0054
     24 O          67.3297   94.3793    9.7537 O.2     1  UNL1       -0.1689
     25 O          65.7265   95.8942   11.7871 O.2     1  UNL1       -0.1689
     26 C          67.3414   96.8559    9.0004 C.3     1  UNL1        0.0276
     27 C          67.2750   96.3908   10.4249 C.3     1  UNL1        0.1556
@<TRIPOS>BOND
     1    26    27    1
     2    27    23    1
     3    23    24    2
     4    23    25    2
     5    23     1    1
     6     1     2    2
     7     2     3    1
     8     3     4    2
     9     4     5    1
    10     5     6    2
    11     6    10    1
    12    10    11   ar
    13    11    12   ar
    14    12    13   ar
    15    13    14    1
    16    13    15   ar
    17    15    17    1
    18    17    18   ar
    19    18    19   ar
    20    19    20   ar
    21    20    21   ar
    22    21    22   ar
    23    15    16   ar
    24     6     7    1
    25     7     8    2
    26     8     9    1
    27     9     1    1
    28     8     4    1
    29    16    10   ar
    30    22    17   ar
@<TRIPOS>MOLECULE
*****
 27 30 0 0 0
SMALL
GASTEIGER

@<TRIPOS>ATOM
      1 C          61.2084   86.7721    8.7053 C.2     1  UNL1        0.0919
      2 C          60.2793   87.9401    8.5545 C.2     1  UNL1        0.0183
      3 C          60.3214   89.0648    9.5461 C.2     1  UNL1        0.0511
      4 C          61.2925   89.0216   10.6884 C.2     1  UNL1        0.2322
      5 N          61.5618   89.9764   11.8135 N.2     1  UNL1       -0.0308
      6 C          62.6573   89.3986   12.6597 C.2     1  UNL1        0.3752
      7 N          63.0651   88.0867   12.0576 N.2     1  UNL1       -0.0347
      8 C          62.2216   87.8537   10.8392 C.2     1  UNL1        0.2191
      9 C          62.1795   86.7290    9.8477 C.3     1  UNL1        0.1226
     10 C          63.2423   90.0231   13.8918 C.ar    1  UNL1        0.0885
     11 C          62.4636   90.0246   15.1738 C.ar    1  UNL1        0.0100
     12 C          63.0485   90.6490   16.4058 C.ar    1  UNL1        0.0299
     13 C          64.4121   91.2719   16.3558 C.ar    1  UNL1        0.1401
     14 F          64.9971   91.8964   17.5879 F       1  UNL1       -0.2042
     15 C          65.1908   91.2704   15.0737 C.ar    1  UNL1        0.0277
     16 C          64.6059   90.6460   13.8417 C.ar    1  UNL1        0.0099
     17 C          66.5544   91.8934   15.0237 C.ar    1  UNL1        0.0022
     18 C          67.0034   92.8051   16.1270 C.ar    1  UNL1        0.0001
     19 C          68.3670   93.4280   16.0770 C.ar    1  UNL1        0.0000
     20 C          69.2816   93.1393   14.9237 C.ar    1  UNL1        0.0000
     21 C          68.8326   92.2276   13.8204 C.ar    1  UNL1        0.0000
     22 C          67.4691   91.6047   13.8704 C.ar    1  UNL1        0.0001
     23 S          61.1663   85.6474    7.7138 S.O2    1  UNL1        0.0054
     24 O          62.5987   85.3240    8.0198 O.2     1  UNL1       -0.1689
     25 O          59.7339   85.9707    7.4078 O.2     1  UNL1       -0.1689
     26 C          62.2139   84.3819    5.7010 C.3     1  UNL1        0.0276
     27 C          61.1243   84.5226    6.7222 C.3     1  UNL1        0.1556
@<TRIPOS>BOND
     1    26    27    1
     2    27    23    1
     3    23    24    2
     4    23    25    2
     5    23     1    1
     6     1     2    2
     7     2     3    1
     8     3     4    2
     9     4     5    1
    10     5     6    2
    11     6    10    1
    12    10    11   ar
    13    11    12   ar
    14    12    13   ar
    15    13    14    1
    16    13    15   ar
    17    15    17    1
    18    17    18   ar
    19    18    19   ar
    20    19    20   ar
    21    20    21   ar
    22    21    22   ar
    23    15    16   ar
    24     6     7    1
    25     7     8    2
    26     8     9    1
    27     9     1    1
    28     8     4    1
    29    16    10   ar
    30    22    17   ar
@<TRIPOS>MOLECULE
*****
 27 30 0 0 0
SMALL
GASTEIGER

@<TRIPOS>ATOM
      1 C          62.9406   83.4641   12.0685 C.2     1  UNL1        0.0919
      2 C          62.4756   84.2826   10.9007 C.2     1  UNL1        0.0183
      3 C          62.5159   85.7804   10.9711 C.2     1  UNL1        0.0511
      4 C          63.0213   86.4597   12.2093 C.2     1  UNL1        0.2322
      5 N          63.1773   87.9080   12.5670 N.2     1  UNL1       -0.0308
      6 C          63.7388   87.9847   13.9559 C.2     1  UNL1        0.3752
      7 N          63.9298   86.5837   14.4565 N.2     1  UNL1       -0.0347
      8 C          63.4864   85.6412   13.3770 C.2     1  UNL1        0.2191
      9 C          63.4460   84.1434   13.3066 C.3     1  UNL1        0.1226
     10 C          64.0539   89.2417   14.7114 C.ar    1  UNL1        0.0885
     11 C          63.0342   89.8357   15.6373 C.ar    1  UNL1        0.0100
     12 C          63.3492   91.0926   16.3928 C.ar    1  UNL1        0.0299
     13 C          64.6839   91.7555   16.2224 C.ar    1  UNL1        0.1401
     14 F          64.9991   93.0125   16.9779 F       1  UNL1       -0.2042
     15 C          65.7036   91.1615   15.2964 C.ar    1  UNL1        0.0277
     16 C          65.3886   89.9045   14.5409 C.ar    1  UNL1        0.0099
     17 C          67.0384   91.8244   15.1260 C.ar    1  UNL1        0.0022
     18 C          67.8108   91.6391   13.8536 C.ar    1  UNL1        0.0001
     19 C          69.1455   92.3021   13.6832 C.ar    1  UNL1        0.0000
     20 C          69.7077   93.1503   14.7852 C.ar    1  UNL1        0.0000
     21 C          68.9353   93.3357   16.0575 C.ar    1  UNL1        0.0000
     22 C          67.6006   92.6727   16.2279 C.ar    1  UNL1        0.0001
     23 S          62.9003   81.9663   11.9981 S.O2    1  UNL1        0.0054
     24 O          62.0704   81.9299   13.2471 O.2     1  UNL1       -0.1689
     25 O          63.7302   82.0026   10.7491 O.2     1  UNL1       -0.1689
     26 C          62.4449   79.6721   13.1291 C.3     1  UNL1        0.0276
     27 C          62.8599   80.4685   11.9277 C.3     1  UNL1        0.1556
@<TRIPOS>BOND
     1    26    27    1
     2    27    23    1
     3    23    24    2
     4    23    25    2
     5    23     1    1
     6     1     2    2
     7     2     3    1
     8     3     4    2
     9     4     5    1
    10     5     6    2
    11     6    10    1
    12    10    11   ar
    13    11    12   ar
    14    12    13   ar
    15    13    14    1
    16    13    15   ar
    17    15    17    1
    18    17    18   ar
    19    18    19   ar
    20    19    20   ar
    21    20    21   ar
    22    21    22   ar
    23    15    16   ar
    24     6     7    1
    25     7     8    2
    26     8     9    1
    27     9     1    1
    28     8     4    1
    29    16    10   ar
    30    22    17   ar
@<TRIPOS>MOLECULE
*****
 27 30 0 0 0
SMALL
GASTEIGER

@<TRIPOS>ATOM
      1 C          61.9785   85.9031    9.4180 C.2     1  UNL1        0.0919
      2 C          62.3613   84.7963   10.3552 C.2     1  UNL1        0.0183
      3 C          62.8952   85.1196   11.7192 C.2     1  UNL1        0.0511
      4 C          63.0462   86.5497   12.1460 C.2     1  UNL1        0.2322
      5 N          63.5405   87.1704   13.4189 N.2     1  UNL1       -0.0308
      6 C          63.4632   88.6609   13.2683 C.2     1  UNL1        0.3752
      7 N          62.9211   88.9613   11.9023 N.2     1  UNL1       -0.0347
      8 C          62.6634   87.6564   11.2087 C.2     1  UNL1        0.2191
      9 C          62.1296   87.3331    9.8447 C.3     1  UNL1        0.1226
     10 C          63.8586   89.6732   14.3022 C.ar    1  UNL1        0.0885
     11 C          62.9147   90.0148   15.4168 C.ar    1  UNL1        0.0100
     12 C          63.3100   91.0271   16.4507 C.ar    1  UNL1        0.0299
     13 C          64.6493   91.6977   16.3701 C.ar    1  UNL1        0.1401
     14 F          65.0447   92.7100   17.4040 F       1  UNL1       -0.2042
     15 C          65.5932   91.3560   15.2555 C.ar    1  UNL1        0.0277
     16 C          65.1979   90.3438   14.2216 C.ar    1  UNL1        0.0099
     17 C          66.9326   92.0267   15.1749 C.ar    1  UNL1        0.0022
     18 C          67.9074   91.6290   14.1065 C.ar    1  UNL1        0.0001
     19 C          69.2467   92.2996   14.0260 C.ar    1  UNL1        0.0000
     20 C          69.6111   93.3681   15.0137 C.ar    1  UNL1        0.0000
     21 C          68.6362   93.7658   16.0820 C.ar    1  UNL1        0.0000
     22 C          67.2970   93.0952   16.1626 C.ar    1  UNL1        0.0001
     23 S          61.4447   85.5798    8.0539 S.O2    1  UNL1        0.0054
     24 O          60.1634   86.2844    8.3884 O.2     1  UNL1       -0.1689
     25 O          62.7260   84.8752    7.7195 O.2     1  UNL1       -0.1689
     26 C          61.6692   84.3279    5.7885 C.3     1  UNL1        0.0276
     27 C          60.9109   85.2565    6.6899 C.3     1  UNL1        0.1556
@<TRIPOS>BOND
     1    26    27    1
     2    27    23    1
     3    23    24    2
     4    23    25    2
     5    23     1    1
     6     1     2    2
     7     2     3    1
     8     3     4    2
     9     4     5    1
    10     5     6    2
    11     6    10    1
    12    10    11   ar
    13    11    12   ar
    14    12    13   ar
    15    13    14    1
    16    13    15   ar
    17    15    17    1
    18    17    18   ar
    19    18    19   ar
    20    19    20   ar
    21    20    21   ar
    22    21    22   ar
    23    15    16   ar
    24     6     7    1
    25     7     8    2
    26     8     9    1
    27     9     1    1
    28     8     4    1
    29    16    10   ar
    30    22    17   ar
@<TRIPOS>MOLECULE
*****
 27 30 0 0 0
SMALL
GASTEIGER

@<TRIPOS>ATOM
      1 C          66.7977   92.8490   14.4461 C.2     1  UNL1        0.0919
      2 C          66.4653   93.7629   13.3041 C.2     1  UNL1        0.0183
      3 C          65.5082   93.3153   12.2394 C.2     1  UNL1        0.0511
      4 C          64.8834   91.9538   12.3167 C.2     1  UNL1        0.2322
      5 N          63.9121   91.2429   11.4217 N.2     1  UNL1       -0.0308
      6 C          63.6442   89.8896   12.0105 C.2     1  UNL1        0.3752
      7 N          64.4499   89.7641   13.2695 N.2     1  UNL1       -0.0347
      8 C          65.2158   91.0399   13.4587 C.2     1  UNL1        0.2191
      9 C          66.1729   91.4875   14.5234 C.3     1  UNL1        0.1226
     10 C          62.7309   88.8451   11.4404 C.ar    1  UNL1        0.0885
     11 C          61.4594   89.2528   10.7570 C.ar    1  UNL1        0.0100
     12 C          60.5461   88.2084   10.1869 C.ar    1  UNL1        0.0299
     13 C          60.9042   86.7563   10.3002 C.ar    1  UNL1        0.1401
     14 F          59.9909   85.7118    9.7301 F       1  UNL1       -0.2042
     15 C          62.1757   86.3485   10.9837 C.ar    1  UNL1        0.0277
     16 C          63.0890   87.3929   11.5538 C.ar    1  UNL1        0.0099
     17 C          62.5338   84.8963   11.0970 C.ar    1  UNL1        0.0022
     18 C          62.2092   84.1394   12.3507 C.ar    1  UNL1        0.0001
     19 C          62.5674   82.6872   12.4640 C.ar    1  UNL1        0.0000
     20 C          63.2501   81.9919   11.3236 C.ar    1  UNL1        0.0000
     21 C          63.5747   82.7488   10.0700 C.ar    1  UNL1        0.0000
     22 C          63.2166   84.2010    9.9567 C.ar    1  UNL1        0.0001
     23 S          67.7548   93.2966   15.5108 S.O2    1  UNL1        0.0054
     24 O          66.6435   93.2768   16.5181 O.2     1  UNL1       -0.1689
     25 O          68.8661   93.3163   14.5035 O.2     1  UNL1       -0.1689
     26 C          69.9526   94.4987   16.1996 C.3     1  UNL1        0.0276
     27 C          68.7119   93.7441   16.5755 C.3     1  UNL1        0.1556
@<TRIPOS>BOND
     1    26    27    1
     2    27    23    1
     3    23    24    2
     4    23    25    2
     5    23     1    1
     6     1     2    2
     7     2     3    1
     8     3     4    2
     9     4     5    1
    10     5     6    2
    11     6    10    1
    12    10    11   ar
    13    11    12   ar
    14    12    13   ar
    15    13    14    1
    16    13    15   ar
    17    15    17    1
    18    17    18   ar
    19    18    19   ar
    20    19    20   ar
    21    20    21   ar
    22    21    22   ar
    23    15    16   ar
    24     6     7    1
    25     7     8    2
    26     8     9    1
    27     9     1    1
    28     8     4    1
    29    16    10   ar
    30    22    17   ar
