@<TRIPOS>MOLECULE
*****
 48 52 0 0 0
SMALL
GASTEIGER

@<TRIPOS>ATOM
      1 N          62.5214   88.0359   12.3093 N.3     1  UNL1       -0.2661
      2 C          63.8513   87.7162   12.9250 C.3     1  UNL1        0.0926
      3 C          64.1430   88.1300   14.3369 C.3     1  UNL1        0.0950
      4 N          64.4004   89.5725   14.6578 N.am    1  UNL1       -0.2706
      5 C          63.4542   90.3234   15.5470 C.2     1  UNL1        0.4020
      6 O          62.2506   89.6319   16.1153 O.2     1  UNL1       -0.2264
      7 H          65.1904   90.0263   14.2848 H       1  UNL1        0.1527
      8 O          63.7116   91.7659   15.8678 O.3     1  UNL1       -0.4274
      9 C          64.9990   92.1704   16.5227 C.3     1  UNL1        0.2621
     10 C          66.2594   92.2503   15.7134 C.ar    1  UNL1        0.1323
     11 N          66.5211   91.5428   14.4169 N.ar    1  UNL1       -0.2374
     12 C          67.9029   91.9069   13.9607 C.ar    1  UNL1        0.1062
     13 C          68.4952   92.8396   14.9753 C.ar    1  UNL1        0.0573
     14 S          67.4795   93.0519   16.0585 S.2     1  UNL1       -0.0666
     15 C          64.1773   87.1012   15.4281 C.3     1  UNL1        0.0474
     16 C          63.9627   85.6532   15.1008 C.ar    1  UNL1       -0.0205
     17 C          62.6681   84.9867   15.4611 C.ar    1  UNL1       -0.0042
     18 C          62.4535   83.5387   15.1337 C.ar    1  UNL1       -0.0003
     19 C          63.5334   82.7572   14.4461 C.ar    1  UNL1       -0.0000
     20 C          64.8280   83.4236   14.0858 C.ar    1  UNL1       -0.0003
     21 C          65.0427   84.8717   14.4132 C.ar    1  UNL1       -0.0042
     22 C          61.6956   86.9429   11.6982 C.3     1  UNL1        0.0992
     23 C          62.3501   85.8939   10.8490 C.ar    1  UNL1       -0.0061
     24 C          62.8031   84.6042   11.4665 C.ar    1  UNL1       -0.0029
     25 C          63.4576   83.5552   10.6174 C.ar    1  UNL1       -0.0003
     26 C          63.6591   83.7959    9.1506 C.ar    1  UNL1       -0.0000
     27 C          63.2061   85.0856    8.5330 C.ar    1  UNL1       -0.0003
     28 C          62.5516   86.1346    9.3822 C.ar    1  UNL1       -0.0029
     29 C          62.0172   89.4486   12.3047 C.3     1  UNL1        0.0926
     30 C          61.8605   90.1848   11.0072 C.3     1  UNL1        0.0950
     31 O          63.7997   91.8603   12.5668 O.2     1  UNL1       -0.2264
     32 C          64.0322   91.6075   11.1067 C.2     1  UNL1        0.4020
     33 N          63.0627   90.7698   10.3269 N.am    1  UNL1       -0.2706
     34 H          63.2153   90.6039    9.3685 H       1  UNL1        0.1527
     35 O          65.2343   92.1925   10.4264 O.3     1  UNL1       -0.4291
     36 C          66.0982   93.1823   11.1502 C.3     1  UNL1        0.2447
     37 C          66.5383   94.4393   10.4602 C.ar    1  UNL1        0.0714
     38 C          67.4086   94.5174    9.2409 C.ar    1  UNL1        0.1053
     39 N          67.5936   95.9653    8.8955 N.ar    1  UNL1       -0.2350
     40 C          66.8377   96.7821    9.9012 C.ar    1  UNL1        0.1343
     41 S          66.1854   95.8390   10.8683 S.2     1  UNL1       -0.0652
     42 C          60.5018   90.3360   10.3900 C.3     1  UNL1        0.0474
     43 C          60.0217   89.3369    9.3793 C.ar    1  UNL1       -0.0205
     44 C          59.9624   89.7083    7.9273 C.ar    1  UNL1       -0.0042
     45 C          59.4824   88.7093    6.9166 C.ar    1  UNL1       -0.0003
     46 C          59.0616   87.3389    7.3580 C.ar    1  UNL1       -0.0000
     47 C          59.1208   86.9675    8.8101 C.ar    1  UNL1       -0.0003
     48 C          59.6009   87.9665    9.8208 C.ar    1  UNL1       -0.0042
@<TRIPOS>BOND
     1    31    32    2
     2    32    33   am
     3    33    30    1
     4    30    42    1
     5    42    43    1
     6    43    44   ar
     7    44    45   ar
     8    45    46   ar
     9    46    47   ar
    10    47    48   ar
    11    30    29    1
    12    29     1    1
    13     1    22    1
    14    22    23    1
    15    23    24   ar
    16    24    25   ar
    17    25    26   ar
    18    26    27   ar
    19    27    28   ar
    20     1     2    1
    21     3     2    1
    22     3    15    1
    23    15    16    1
    24    16    17   ar
    25    17    18   ar
    26    18    19   ar
    27    19    20   ar
    28    20    21   ar
    29     3     4    1
    30     4     5   am
    31     5     6    2
    32     5     8    1
    33     8     9    1
    34     9    10    1
    35    10    11   ar
    36    11    12   ar
    37    12    13   ar
    38    13    14   ar
    39    32    35    1
    40    35    36    1
    41    36    37    1
    42    37    38   ar
    43    38    39   ar
    44    39    40   ar
    45    40    41   ar
    46    48    43   ar
    47    28    23   ar
    48    21    16   ar
    49    14    10   ar
    50    41    37   ar
    51    33    34    1
    52     4     7    1
@<TRIPOS>MOLECULE
*****
 48 52 0 0 0
SMALL
GASTEIGER

@<TRIPOS>ATOM
      1 N          62.5762   88.1428   12.3680 N.3     1  UNL1       -0.2661
      2 C          62.0720   89.5551   12.3328 C.3     1  UNL1        0.0926
      3 C          61.8074   90.2244   11.0168 C.3     1  UNL1        0.0950
      4 N          62.9394   90.8344   10.2446 N.am    1  UNL1       -0.2706
      5 C          64.0015   91.6146   10.9609 C.2     1  UNL1        0.4020
      6 O          63.9315   91.7849   12.4495 O.2     1  UNL1       -0.2264
      7 H          62.9854   90.7226    9.2675 H       1  UNL1        0.1527
      8 O          65.1336   92.2246   10.1886 O.3     1  UNL1       -0.4274
      9 C          66.2215   92.9634   10.9102 C.3     1  UNL1        0.2621
     10 C          66.5094   94.3954   10.5690 C.ar    1  UNL1        0.1323
     11 N          66.0954   95.5933   11.3713 N.ar    1  UNL1       -0.2374
     12 C          66.5919   96.8192   10.6638 C.ar    1  UNL1        0.1062
     13 C          67.3128   96.3790    9.4242 C.ar    1  UNL1        0.0573
     14 S          67.2618   94.8810    9.3656 S.2     1  UNL1       -0.0666
     15 C          60.4106   90.2839   10.4730 C.3     1  UNL1        0.0474
     16 C          59.9737   89.3092    9.4200 C.ar    1  UNL1       -0.0205
     17 C          59.9752   89.7146    7.9757 C.ar    1  UNL1       -0.0042
     18 C          59.5382   88.7400    6.9227 C.ar    1  UNL1       -0.0003
     19 C          59.0998   87.3598    7.3137 C.ar    1  UNL1       -0.0000
     20 C          59.0983   86.9543    8.7578 C.ar    1  UNL1       -0.0003
     21 C          59.5353   87.9290    9.8110 C.ar    1  UNL1       -0.0042
     22 C          61.7369   87.0326   11.8085 C.3     1  UNL1        0.0992
     23 C          62.3504   86.0189   10.8887 C.ar    1  UNL1       -0.0061
     24 C          62.7866   84.6874   11.4241 C.ar    1  UNL1       -0.0029
     25 C          63.4001   83.6736   10.5044 C.ar    1  UNL1       -0.0003
     26 C          63.5774   83.9915    9.0492 C.ar    1  UNL1       -0.0000
     27 C          63.1411   85.3230    8.5138 C.ar    1  UNL1       -0.0003
     28 C          62.5276   86.3367    9.4335 C.ar    1  UNL1       -0.0029
     29 C          63.9198   87.8406   12.9625 C.3     1  UNL1        0.0926
     30 C          64.2197   88.2365   14.3779 C.3     1  UNL1        0.0950
     31 O          62.3292   89.7563   16.1431 O.2     1  UNL1       -0.2264
     32 C          63.5510   90.4322   15.5952 C.2     1  UNL1        0.4020
     33 N          64.4963   89.6723   14.7126 N.am    1  UNL1       -0.2706
     34 H          65.2982   90.1159   14.3530 H       1  UNL1        0.1527
     35 O          63.8276   91.8680   15.9299 O.3     1  UNL1       -0.4291
     36 C          65.1036   92.2443   16.6228 C.3     1  UNL1        0.2447
     37 C          66.3256   92.5729   15.8176 C.ar    1  UNL1        0.0714
     38 C          66.3409   93.1864   14.4488 C.ar    1  UNL1        0.1053
     39 N          67.7717   93.3383   14.0248 N.ar    1  UNL1       -0.2350
     40 C          68.6408   92.8188   15.1316 C.ar    1  UNL1        0.1343
     41 S          67.7470   92.3457   16.2396 S.2     1  UNL1       -0.0652
     42 C          64.2431   87.1965   15.4586 C.3     1  UNL1        0.0474
     43 C          63.9861   85.7579   15.1208 C.ar    1  UNL1       -0.0205
     44 C          62.6730   85.1267   15.4776 C.ar    1  UNL1       -0.0042
     45 C          62.4159   83.6881   15.1397 C.ar    1  UNL1       -0.0003
     46 C          63.4720   82.8805   14.4451 C.ar    1  UNL1       -0.0000
     47 C          64.7851   83.5116   14.0883 C.ar    1  UNL1       -0.0003
     48 C          65.0421   84.9503   14.4261 C.ar    1  UNL1       -0.0042
@<TRIPOS>BOND
     1    31    32    2
     2    32    33   am
     3    33    30    1
     4    30    42    1
     5    42    43    1
     6    43    44   ar
     7    44    45   ar
     8    45    46   ar
     9    46    47   ar
    10    47    48   ar
    11    30    29    1
    12    29     1    1
    13     1    22    1
    14    22    23    1
    15    23    24   ar
    16    24    25   ar
    17    25    26   ar
    18    26    27   ar
    19    27    28   ar
    20     1     2    1
    21     3     2    1
    22     3    15    1
    23    15    16    1
    24    16    17   ar
    25    17    18   ar
    26    18    19   ar
    27    19    20   ar
    28    20    21   ar
    29     3     4    1
    30     4     5   am
    31     5     6    2
    32     5     8    1
    33     8     9    1
    34     9    10    1
    35    10    11   ar
    36    11    12   ar
    37    12    13   ar
    38    13    14   ar
    39    32    35    1
    40    35    36    1
    41    36    37    1
    42    37    38   ar
    43    38    39   ar
    44    39    40   ar
    45    40    41   ar
    46    48    43   ar
    47    28    23   ar
    48    21    16   ar
    49    14    10   ar
    50    41    37   ar
    51    33    34    1
    52     4     7    1
@<TRIPOS>MOLECULE
*****
 48 52 0 0 0
SMALL
GASTEIGER

@<TRIPOS>ATOM
      1 N          63.5949   88.5757   13.0056 N.3     1  UNL1       -0.2661
      2 C          63.3183   89.9621   13.5070 C.3     1  UNL1        0.0926
      3 C          64.4433   90.9420   13.6619 C.3     1  UNL1        0.0950
      4 N          65.0166   91.6227   12.4544 N.am    1  UNL1       -0.2706
      5 C          64.1518   91.8775   11.2557 C.2     1  UNL1        0.4020
      6 O          62.7136   91.4516   11.2644 O.2     1  UNL1       -0.2264
      7 H          65.9606   91.9022   12.4487 H       1  UNL1        0.1527
      8 O          64.7251   92.5581   10.0482 O.3     1  UNL1       -0.4274
      9 C          66.1259   93.0934   10.0833 C.3     1  UNL1        0.2621
     10 C          66.3618   94.5725   10.1640 C.ar    1  UNL1        0.1323
     11 N          66.0438   95.4535   11.3356 N.ar    1  UNL1       -0.2374
     12 C          66.4427   96.8558   10.9829 C.ar    1  UNL1        0.1062
     13 C          67.0071   96.8415    9.5932 C.ar    1  UNL1        0.0573
     14 S          66.9572   95.4304    9.0870 S.2     1  UNL1       -0.0666
     15 C          64.9951   91.2412   15.0243 C.3     1  UNL1        0.0474
     16 C          66.3647   91.8366   15.1646 C.ar    1  UNL1       -0.0205
     17 C          66.6537   92.7989   16.2784 C.ar    1  UNL1       -0.0042
     18 C          68.0232   93.3943   16.4187 C.ar    1  UNL1       -0.0003
     19 C          69.1039   93.0274   15.4453 C.ar    1  UNL1       -0.0000
     20 C          68.8149   92.0652   14.3315 C.ar    1  UNL1       -0.0003
     21 C          67.4453   91.4697   14.1911 C.ar    1  UNL1       -0.0042
     22 C          64.3319   87.5979   13.8720 C.3     1  UNL1        0.0992
     23 C          63.7709   87.2076   15.2073 C.ar    1  UNL1       -0.0061
     24 C          63.5679   85.7594   15.5412 C.ar    1  UNL1       -0.0029
     25 C          63.0068   85.3691   16.8764 C.ar    1  UNL1       -0.0003
     26 C          62.6489   86.4270   17.8778 C.ar    1  UNL1       -0.0000
     27 C          62.8519   87.8752   17.5439 C.ar    1  UNL1       -0.0003
     28 C          63.4129   88.2655   16.2086 C.ar    1  UNL1       -0.0029
     29 C          63.1344   88.1670   11.6378 C.3     1  UNL1        0.0926
     30 C          62.1736   87.0260   11.4796 C.3     1  UNL1        0.0950
     31 O          62.9205   85.5515    8.9760 O.2     1  UNL1       -0.2264
     32 C          63.0417   84.8750   10.3093 C.2     1  UNL1        0.4020
     33 N          62.6682   85.6122   11.5611 N.am    1  UNL1       -0.2706
     34 H          62.7477   85.1682   12.4362 H       1  UNL1        0.1527
     35 O          63.5363   83.4612   10.3908 O.3     1  UNL1       -0.4291
     36 C          64.0545   82.9216   11.6909 C.3     1  UNL1        0.2447
     37 C          63.1712   82.0717   12.5555 C.ar    1  UNL1        0.0714
     38 C          62.8432   80.6257   12.3286 C.ar    1  UNL1        0.1053
     39 N          61.9302   80.1788   13.4316 N.ar    1  UNL1       -0.2350
     40 C          61.6939   81.3487   14.3403 C.ar    1  UNL1        0.1343
     41 S          62.4610   82.5186   13.7988 S.2     1  UNL1       -0.0652
     42 C          60.7182   87.2988   11.2400 C.3     1  UNL1        0.0474
     43 C          60.2477   87.7165    9.8784 C.ar    1  UNL1       -0.0205
     44 C          60.3678   89.1490    9.4501 C.ar    1  UNL1       -0.0042
     45 C          59.8973   89.5667    8.0884 C.ar    1  UNL1       -0.0003
     46 C          59.3067   88.5518    7.1550 C.ar    1  UNL1       -0.0000
     47 C          59.1866   87.1193    7.5833 C.ar    1  UNL1       -0.0003
     48 C          59.6571   86.7017    8.9450 C.ar    1  UNL1       -0.0042
@<TRIPOS>BOND
     1    31    32    2
     2    32    33   am
     3    33    30    1
     4    30    42    1
     5    42    43    1
     6    43    44   ar
     7    44    45   ar
     8    45    46   ar
     9    46    47   ar
    10    47    48   ar
    11    30    29    1
    12    29     1    1
    13     1    22    1
    14    22    23    1
    15    23    24   ar
    16    24    25   ar
    17    25    26   ar
    18    26    27   ar
    19    27    28   ar
    20     1     2    1
    21     3     2    1
    22     3    15    1
    23    15    16    1
    24    16    17   ar
    25    17    18   ar
    26    18    19   ar
    27    19    20   ar
    28    20    21   ar
    29     3     4    1
    30     4     5   am
    31     5     6    2
    32     5     8    1
    33     8     9    1
    34     9    10    1
    35    10    11   ar
    36    11    12   ar
    37    12    13   ar
    38    13    14   ar
    39    32    35    1
    40    35    36    1
    41    36    37    1
    42    37    38   ar
    43    38    39   ar
    44    39    40   ar
    45    40    41   ar
    46    48    43   ar
    47    28    23   ar
    48    21    16   ar
    49    14    10   ar
    50    41    37   ar
    51    33    34    1
    52     4     7    1
@<TRIPOS>MOLECULE
*****
 48 52 0 0 0
SMALL
GASTEIGER

@<TRIPOS>ATOM
      1 N          63.5150   88.3992   12.9924 N.3     1  UNL1       -0.2661
      2 C          63.1229   89.7282   13.5669 C.3     1  UNL1        0.0926
      3 C          64.1415   90.8226   13.6888 C.3     1  UNL1        0.0950
      4 N          64.5661   91.5908   12.4724 N.am    1  UNL1       -0.2706
      5 C          63.6258   91.7397   11.3133 C.2     1  UNL1        0.4020
      6 O          62.2609   91.1203   11.3705 O.2     1  UNL1       -0.2264
      7 H          65.4620   91.9973   12.4349 H       1  UNL1        0.1527
      8 O          64.0504   92.5079   10.0970 O.3     1  UNL1       -0.4274
      9 C          65.0780   93.5940   10.2168 C.3     1  UNL1        0.2621
     10 C          66.5239   93.2905    9.9571 C.ar    1  UNL1        0.1323
     11 N          67.2858   92.1112   10.4851 N.ar    1  UNL1       -0.2374
     12 C          68.6945   92.2048    9.9782 C.ar    1  UNL1        0.1062
     13 C          68.8031   93.4419    9.1369 C.ar    1  UNL1        0.0573
     14 S          67.4616   94.1129    9.1239 S.2     1  UNL1       -0.0666
     15 C          64.7355   91.1487   15.0270 C.3     1  UNL1        0.0474
     16 C          66.1132   91.7357   15.1132 C.ar    1  UNL1       -0.0205
     17 C          67.1583   91.3467   14.1098 C.ar    1  UNL1       -0.0042
     18 C          68.5359   91.9336   14.1959 C.ar    1  UNL1       -0.0003
     19 C          68.8686   92.9096   15.2853 C.ar    1  UNL1       -0.0000
     20 C          67.8237   93.2986   16.2886 C.ar    1  UNL1       -0.0003
     21 C          66.4459   92.7116   16.2026 C.ar    1  UNL1       -0.0042
     22 C          64.2153   87.3882   13.8511 C.3     1  UNL1        0.0992
     23 C          63.6990   87.0861   15.2267 C.ar    1  UNL1       -0.0061
     24 C          63.4710   85.6642   15.6467 C.ar    1  UNL1       -0.0029
     25 C          62.9547   85.3621   17.0222 C.ar    1  UNL1       -0.0003
     26 C          62.6664   86.4819   17.9778 C.ar    1  UNL1       -0.0000
     27 C          62.8944   87.9037   17.5577 C.ar    1  UNL1       -0.0003
     28 C          63.4107   88.2058   16.1822 C.ar    1  UNL1       -0.0029
     29 C          63.2069   88.0813   11.5593 C.3     1  UNL1        0.0926
     30 C          61.8315   87.6254   11.1712 C.3     1  UNL1        0.0950
     31 O          61.0923   87.1061    8.3104 O.2     1  UNL1       -0.2264
     32 C          60.5358   88.3027    9.0235 C.2     1  UNL1        0.4020
     33 N          60.9054   88.5624   10.4539 N.am    1  UNL1       -0.2706
     34 H          60.5401   89.3477   10.9219 H       1  UNL1        0.1527
     35 O          59.6097   89.2396    8.3062 O.3     1  UNL1       -0.4291
     36 C          59.2873   89.0136    6.8588 C.3     1  UNL1        0.2447
     37 C          59.0724   90.1848    5.9466 C.ar    1  UNL1        0.0714
     38 C          57.7500   90.8041    5.6035 C.ar    1  UNL1        0.1053
     39 N          58.0024   91.9444    4.6622 N.ar    1  UNL1       -0.2350
     40 C          59.4808   92.0298    4.4234 C.ar    1  UNL1        0.1343
     41 S          60.1421   90.9423    5.2173 S.2     1  UNL1       -0.0652
     42 C          61.3823   86.2327   11.5004 C.3     1  UNL1        0.0474
     43 C          62.3228   85.0784   11.3178 C.ar    1  UNL1       -0.0205
     44 C          62.9053   84.7923    9.9655 C.ar    1  UNL1       -0.0042
     45 C          63.8458   83.6381    9.7829 C.ar    1  UNL1       -0.0003
     46 C          64.2037   82.7700   10.9526 C.ar    1  UNL1       -0.0000
     47 C          63.6211   83.0561   12.3048 C.ar    1  UNL1       -0.0003
     48 C          62.6807   84.2103   12.4874 C.ar    1  UNL1       -0.0042
@<TRIPOS>BOND
     1    31    32    2
     2    32    33   am
     3    33    30    1
     4    30    42    1
     5    42    43    1
     6    43    44   ar
     7    44    45   ar
     8    45    46   ar
     9    46    47   ar
    10    47    48   ar
    11    30    29    1
    12    29     1    1
    13     1    22    1
    14    22    23    1
    15    23    24   ar
    16    24    25   ar
    17    25    26   ar
    18    26    27   ar
    19    27    28   ar
    20     1     2    1
    21     3     2    1
    22     3    15    1
    23    15    16    1
    24    16    17   ar
    25    17    18   ar
    26    18    19   ar
    27    19    20   ar
    28    20    21   ar
    29     3     4    1
    30     4     5   am
    31     5     6    2
    32     5     8    1
    33     8     9    1
    34     9    10    1
    35    10    11   ar
    36    11    12   ar
    37    12    13   ar
    38    13    14   ar
    39    32    35    1
    40    35    36    1
    41    36    37    1
    42    37    38   ar
    43    38    39   ar
    44    39    40   ar
    45    40    41   ar
    46    48    43   ar
    47    28    23   ar
    48    21    16   ar
    49    14    10   ar
    50    41    37   ar
    51    33    34    1
    52     4     7    1
@<TRIPOS>MOLECULE
*****
 48 52 0 0 0
SMALL
GASTEIGER

@<TRIPOS>ATOM
      1 N          63.2692   90.4475   13.6486 N.3     1  UNL1       -0.2661
      2 C          63.5509   91.7636   12.9864 C.3     1  UNL1        0.0926
      3 C          64.9257   92.0625   12.4663 C.3     1  UNL1        0.0950
      4 N          65.1237   93.1482   11.4504 N.am    1  UNL1       -0.2706
      5 C          65.6941   94.4711   11.8680 C.2     1  UNL1        0.4020
      6 O          66.0665   94.7084   13.3015 O.2     1  UNL1       -0.2264
      7 H          64.8793   92.9924   10.5095 H       1  UNL1        0.1527
      8 O          65.8921   95.5568   10.8520 O.3     1  UNL1       -0.4274
      9 C          67.0960   95.5365    9.9576 C.3     1  UNL1        0.2621
     10 C          67.7225   94.2291    9.5727 C.ar    1  UNL1        0.1323
     11 N          68.0063   93.0816   10.4962 N.ar    1  UNL1       -0.2374
     12 C          68.6344   91.9829    9.6911 C.ar    1  UNL1        0.1062
     13 C          68.7387   92.4513    8.2699 C.ar    1  UNL1        0.0573
     14 S          68.1752   93.8395    8.1967 S.2     1  UNL1       -0.0666
     15 C          66.1027   91.2757   12.9622 C.3     1  UNL1        0.0474
     16 C          66.9907   91.8459   14.0281 C.ar    1  UNL1       -0.0205
     17 C          68.4634   91.9880   13.7806 C.ar    1  UNL1       -0.0042
     18 C          69.3514   92.5583   14.8465 C.ar    1  UNL1       -0.0003
     19 C          68.7669   92.9865   16.1598 C.ar    1  UNL1       -0.0000
     20 C          67.2944   92.8444   16.4074 C.ar    1  UNL1       -0.0003
     21 C          66.4062   92.2742   15.3415 C.ar    1  UNL1       -0.0042
     22 C          63.9735   90.0825   14.9216 C.3     1  UNL1        0.0992
     23 C          63.7664   88.7277   15.5314 C.ar    1  UNL1       -0.0061
     24 C          64.4326   87.5253   14.9311 C.ar    1  UNL1       -0.0029
     25 C          64.2257   86.1706   15.5408 C.ar    1  UNL1       -0.0003
     26 C          63.3525   86.0183   16.7509 C.ar    1  UNL1       -0.0000
     27 C          62.6863   87.2207   17.3512 C.ar    1  UNL1       -0.0003
     28 C          62.8932   88.5754   16.7415 C.ar    1  UNL1       -0.0029
     29 C          62.2833   89.4964   13.0376 C.3     1  UNL1        0.0926
     30 C          62.6986   88.6162   11.8963 C.3     1  UNL1        0.0950
     31 O          61.2155   86.0090   11.9549 O.2     1  UNL1       -0.2264
     32 C          62.6961   86.0352   12.1940 C.2     1  UNL1        0.4020
     33 N          63.4377   87.3387   12.1647 N.am    1  UNL1       -0.2706
     34 H          64.4094   87.3559   12.3217 H       1  UNL1        0.1527
     35 O          63.4352   84.7577   12.4625 O.3     1  UNL1       -0.4291
     36 C          62.9869   83.4815   11.8142 C.3     1  UNL1        0.2447
     37 C          62.6566   82.2869   12.6591 C.ar    1  UNL1        0.0714
     38 C          62.1785   82.3174   14.0806 C.ar    1  UNL1        0.1053
     39 N          61.9728   80.9014   14.5309 N.ar    1  UNL1       -0.2350
     40 C          62.3239   79.9958   13.3878 C.ar    1  UNL1        0.1343
     41 S          62.7465   80.8521   12.2310 S.2     1  UNL1       -0.0652
     42 C          62.3749   89.0134   10.4865 C.3     1  UNL1        0.0474
     43 C          61.6069   88.0773    9.6011 C.ar    1  UNL1       -0.0205
     44 C          60.1490   88.3167    9.3420 C.ar    1  UNL1       -0.0042
     45 C          59.3810   87.3806    8.4566 C.ar    1  UNL1       -0.0003
     46 C          60.0709   86.2051    7.8303 C.ar    1  UNL1       -0.0000
     47 C          61.5288   85.9657    8.0894 C.ar    1  UNL1       -0.0003
     48 C          62.2968   86.9018    8.9749 C.ar    1  UNL1       -0.0042
@<TRIPOS>BOND
     1    31    32    2
     2    32    33   am
     3    33    30    1
     4    30    42    1
     5    42    43    1
     6    43    44   ar
     7    44    45   ar
     8    45    46   ar
     9    46    47   ar
    10    47    48   ar
    11    30    29    1
    12    29     1    1
    13     1    22    1
    14    22    23    1
    15    23    24   ar
    16    24    25   ar
    17    25    26   ar
    18    26    27   ar
    19    27    28   ar
    20     1     2    1
    21     3     2    1
    22     3    15    1
    23    15    16    1
    24    16    17   ar
    25    17    18   ar
    26    18    19   ar
    27    19    20   ar
    28    20    21   ar
    29     3     4    1
    30     4     5   am
    31     5     6    2
    32     5     8    1
    33     8     9    1
    34     9    10    1
    35    10    11   ar
    36    11    12   ar
    37    12    13   ar
    38    13    14   ar
    39    32    35    1
    40    35    36    1
    41    36    37    1
    42    37    38   ar
    43    38    39   ar
    44    39    40   ar
    45    40    41   ar
    46    48    43   ar
    47    28    23   ar
    48    21    16   ar
    49    14    10   ar
    50    41    37   ar
    51    33    34    1
    52     4     7    1
@<TRIPOS>MOLECULE
*****
 48 52 0 0 0
SMALL
GASTEIGER

@<TRIPOS>ATOM
      1 N          62.3512   88.3509   12.1449 N.3     1  UNL1       -0.2661
      2 C          61.6490   89.6710   12.0261 C.3     1  UNL1        0.0926
      3 C          61.5745   90.3640   10.6979 C.3     1  UNL1        0.0950
      4 N          62.8009   91.0009   10.1144 N.am    1  UNL1       -0.2706
      5 C          63.7746   91.7107   11.0077 C.2     1  UNL1        0.4020
      6 O          63.5220   91.7837   12.4844 O.2     1  UNL1       -0.2264
      7 H          62.9666   90.9530    9.1452 H       1  UNL1        0.1527
      8 O          65.0010   92.3476   10.4241 O.3     1  UNL1       -0.4274
      9 C          65.6668   93.4862   11.1383 C.3     1  UNL1        0.2621
     10 C          66.2998   94.5965   10.3532 C.ar    1  UNL1        0.1323
     11 N          66.9838   94.4587    9.0253 N.ar    1  UNL1       -0.2374
     12 C          67.4668   95.8166    8.6095 C.ar    1  UNL1        0.1062
     13 C          67.0812   96.7937    9.6804 C.ar    1  UNL1        0.0573
     14 S          66.3600   96.0397   10.7581 S.2     1  UNL1       -0.0666
     15 C          60.2736   90.4202    9.9531 C.3     1  UNL1        0.0474
     16 C          59.8620   89.2757    9.0753 C.ar    1  UNL1       -0.0205
     17 C          59.8536   89.4394    7.5842 C.ar    1  UNL1       -0.0042
     18 C          59.4419   88.2949    6.7064 C.ar    1  UNL1       -0.0003
     19 C          59.0386   86.9867    7.3196 C.ar    1  UNL1       -0.0000
     20 C          59.0470   86.8230    8.8105 C.ar    1  UNL1       -0.0003
     21 C          59.4587   87.9675    9.6885 C.ar    1  UNL1       -0.0042
     22 C          61.6369   87.0854   11.7733 C.3     1  UNL1        0.0992
     23 C          62.2712   86.1192   10.8170 C.ar    1  UNL1       -0.0061
     24 C          62.4121   86.4814    9.3682 C.ar    1  UNL1       -0.0029
     25 C          63.0464   85.5154    8.4119 C.ar    1  UNL1       -0.0003
     26 C          63.5397   84.1872    8.9044 C.ar    1  UNL1       -0.0000
     27 C          63.3988   83.8251   10.3532 C.ar    1  UNL1       -0.0003
     28 C          62.7645   84.7911   11.3095 C.ar    1  UNL1       -0.0029
     29 C          63.7676   88.2963   12.6354 C.3     1  UNL1        0.0926
     30 C          64.0492   88.0600   14.0897 C.3     1  UNL1        0.0950
     31 O          62.5482   85.5071   14.5692 O.2     1  UNL1       -0.2264
     32 C          64.0354   85.5499   14.7600 C.2     1  UNL1        0.4020
     33 N          64.7859   86.8263   14.5203 N.am    1  UNL1       -0.2706
     34 H          65.7620   86.8544   14.6455 H       1  UNL1        0.1527
     35 O          64.7721   84.3162   15.1905 O.3     1  UNL1       -0.4291
     36 C          64.0142   83.0585   15.4967 C.3     1  UNL1        0.2447
     37 C          63.4095   82.2572   14.3822 C.ar    1  UNL1        0.0714
     38 C          64.1513   81.6558   13.2254 C.ar    1  UNL1        0.1053
     39 N          63.1570   80.9435   12.3571 N.ar    1  UNL1       -0.2350
     40 C          61.8007   81.1046   12.9771 C.ar    1  UNL1        0.1343
     41 S          61.9567   81.9166   14.2288 S.2     1  UNL1       -0.0652
     42 C          63.5940   89.0574   15.1134 C.3     1  UNL1        0.0474
     43 C          64.4210   90.2776   15.3912 C.ar    1  UNL1       -0.0205
     44 C          63.9890   91.2521   16.4465 C.ar    1  UNL1       -0.0042
     45 C          64.8159   92.4724   16.7243 C.ar    1  UNL1       -0.0003
     46 C          66.0749   92.7181   15.9468 C.ar    1  UNL1       -0.0000
     47 C          66.5069   91.7436   14.8915 C.ar    1  UNL1       -0.0003
     48 C          65.6800   90.5233   14.6138 C.ar    1  UNL1       -0.0042
@<TRIPOS>BOND
     1    31    32    2
     2    32    33   am
     3    33    30    1
     4    30    42    1
     5    42    43    1
     6    43    44   ar
     7    44    45   ar
     8    45    46   ar
     9    46    47   ar
    10    47    48   ar
    11    30    29    1
    12    29     1    1
    13     1    22    1
    14    22    23    1
    15    23    24   ar
    16    24    25   ar
    17    25    26   ar
    18    26    27   ar
    19    27    28   ar
    20     1     2    1
    21     3     2    1
    22     3    15    1
    23    15    16    1
    24    16    17   ar
    25    17    18   ar
    26    18    19   ar
    27    19    20   ar
    28    20    21   ar
    29     3     4    1
    30     4     5   am
    31     5     6    2
    32     5     8    1
    33     8     9    1
    34     9    10    1
    35    10    11   ar
    36    11    12   ar
    37    12    13   ar
    38    13    14   ar
    39    32    35    1
    40    35    36    1
    41    36    37    1
    42    37    38   ar
    43    38    39   ar
    44    39    40   ar
    45    40    41   ar
    46    48    43   ar
    47    28    23   ar
    48    21    16   ar
    49    14    10   ar
    50    41    37   ar
    51    33    34    1
    52     4     7    1
@<TRIPOS>MOLECULE
*****
 48 52 0 0 0
SMALL
GASTEIGER

@<TRIPOS>ATOM
      1 N          62.4336   86.8540   11.7661 N.3     1  UNL1       -0.2661
      2 C          62.5346   88.2839   12.2079 C.3     1  UNL1        0.0926
      3 C          62.4003   89.3903   11.2041 C.3     1  UNL1        0.0950
      4 N          62.1182   89.0685    9.7664 N.am    1  UNL1       -0.2706
      5 C          60.7872   89.4146    9.1676 C.2     1  UNL1        0.4020
      6 O          59.7383   90.0825   10.0064 O.2     1  UNL1       -0.2264
      7 H          62.8067   88.6301    9.2159 H       1  UNL1        0.1527
      8 O          60.5051   89.0928    7.7299 O.3     1  UNL1       -0.4274
      9 C          59.1113   89.2241    7.1915 C.3     1  UNL1        0.2621
     10 C          58.8043   90.2580    6.1490 C.ar    1  UNL1        0.1323
     11 N          57.4365   90.7149    5.7363 N.ar    1  UNL1       -0.2374
     12 C          57.5981   91.7558    4.6684 C.ar    1  UNL1        0.1062
     13 C          59.0657   91.9421    4.4210 C.ar    1  UNL1        0.0573
     14 S          59.8113   91.0164    5.3360 S.2     1  UNL1       -0.0666
     15 C          62.5481   90.8186   11.6379 C.3     1  UNL1        0.0474
     16 C          63.9133   91.4273   11.7622 C.ar    1  UNL1       -0.0205
     17 C          64.5907   92.0029   10.5539 C.ar    1  UNL1       -0.0042
     18 C          65.9560   92.6116   10.6782 C.ar    1  UNL1       -0.0003
     19 C          66.6440   92.6447   12.0108 C.ar    1  UNL1       -0.0000
     20 C          65.9666   92.0691   13.2190 C.ar    1  UNL1       -0.0003
     21 C          64.6013   91.4604   13.0947 C.ar    1  UNL1       -0.0042
     22 C          61.2455   86.3962   10.9732 C.3     1  UNL1        0.0992
     23 C          61.4248   85.9139    9.5641 C.ar    1  UNL1       -0.0061
     24 C          60.2839   85.9930    8.5935 C.ar    1  UNL1       -0.0029
     25 C          60.4632   85.5107    7.1845 C.ar    1  UNL1       -0.0003
     26 C          61.7833   84.9494    6.7462 C.ar    1  UNL1       -0.0000
     27 C          62.9241   84.8703    7.7169 C.ar    1  UNL1       -0.0003
     28 C          62.7449   85.3525    9.1258 C.ar    1  UNL1       -0.0029
     29 C          63.5206   85.8819   12.1173 C.3     1  UNL1        0.0926
     30 C          63.4851   85.1596   13.4314 C.3     1  UNL1        0.0950
     31 O          64.3375   82.8876   15.1954 O.2     1  UNL1       -0.2264
     32 C          63.0137   82.8352   14.4920 C.2     1  UNL1        0.4020
     33 N          62.5875   83.9711   13.6101 N.am    1  UNL1       -0.2706
     34 H          61.7186   83.9367   13.1484 H       1  UNL1        0.1527
     35 O          62.1160   81.6467   14.6706 O.3     1  UNL1       -0.4291
     36 C          62.3689   80.3916   13.8891 C.3     1  UNL1        0.2447
     37 C          62.6929   80.4712   12.4267 C.ar    1  UNL1        0.0714
     38 C          62.6086   79.3425   11.4422 C.ar    1  UNL1        0.1053
     39 N          63.0217   79.8672   10.0991 N.ar    1  UNL1       -0.2350
     40 C          63.3613   81.3201   10.2534 C.ar    1  UNL1        0.1343
     41 S          63.1581   81.6934   11.6920 S.2     1  UNL1       -0.0652
     42 C          64.3472   85.6257   14.5670 C.3     1  UNL1        0.0474
     43 C          63.9414   86.8230   15.3743 C.ar    1  UNL1       -0.0205
     44 C          64.2204   88.2041   14.8599 C.ar    1  UNL1       -0.0042
     45 C          63.8145   89.4014   15.6673 C.ar    1  UNL1       -0.0003
     46 C          63.1297   89.2175   16.9891 C.ar    1  UNL1       -0.0000
     47 C          62.8507   87.8364   17.5035 C.ar    1  UNL1       -0.0003
     48 C          63.2565   86.6391   16.6961 C.ar    1  UNL1       -0.0042
@<TRIPOS>BOND
     1    31    32    2
     2    32    33   am
     3    33    30    1
     4    30    42    1
     5    42    43    1
     6    43    44   ar
     7    44    45   ar
     8    45    46   ar
     9    46    47   ar
    10    47    48   ar
    11    30    29    1
    12    29     1    1
    13     1    22    1
    14    22    23    1
    15    23    24   ar
    16    24    25   ar
    17    25    26   ar
    18    26    27   ar
    19    27    28   ar
    20     1     2    1
    21     3     2    1
    22     3    15    1
    23    15    16    1
    24    16    17   ar
    25    17    18   ar
    26    18    19   ar
    27    19    20   ar
    28    20    21   ar
    29     3     4    1
    30     4     5   am
    31     5     6    2
    32     5     8    1
    33     8     9    1
    34     9    10    1
    35    10    11   ar
    36    11    12   ar
    37    12    13   ar
    38    13    14   ar
    39    32    35    1
    40    35    36    1
    41    36    37    1
    42    37    38   ar
    43    38    39   ar
    44    39    40   ar
    45    40    41   ar
    46    48    43   ar
    47    28    23   ar
    48    21    16   ar
    49    14    10   ar
    50    41    37   ar
    51    33    34    1
    52     4     7    1
@<TRIPOS>MOLECULE
*****
 48 52 0 0 0
SMALL
GASTEIGER

@<TRIPOS>ATOM
      1 N          62.4493   87.0638   10.7384 N.3     1  UNL1       -0.2661
      2 C          62.6263   88.3568   11.4779 C.3     1  UNL1        0.0926
      3 C          62.1138   89.6359   10.8854 C.3     1  UNL1        0.0950
      4 N          61.3460   89.6110    9.5970 N.am    1  UNL1       -0.2706
      5 C          59.9391   89.0915    9.5723 C.2     1  UNL1        0.4020
      6 O          59.2999   88.5970   10.8360 O.2     1  UNL1       -0.2264
      7 H          61.7655   89.9356    8.7677 H       1  UNL1        0.1527
      8 O          59.1713   89.0667    8.2840 O.3     1  UNL1       -0.4274
      9 C          59.8722   89.3467    6.9877 C.3     1  UNL1        0.2621
     10 C          59.2811   90.3190    6.0103 C.ar    1  UNL1        0.1323
     11 N          57.8218   90.6216    5.8407 N.ar    1  UNL1       -0.2374
     12 C          57.6844   91.6491    4.7565 C.ar    1  UNL1        0.1062
     13 C          59.0588   91.9815    4.2560 C.ar    1  UNL1        0.0573
     14 S          60.0457   91.1595    5.0309 S.2     1  UNL1       -0.0666
     15 C          62.3691   90.9400   11.5813 C.3     1  UNL1        0.0474
     16 C          63.7530   91.5180   11.6072 C.ar    1  UNL1       -0.0205
     17 C          64.5022   91.6125   12.9033 C.ar    1  UNL1       -0.0042
     18 C          65.8861   92.1904   12.9292 C.ar    1  UNL1       -0.0003
     19 C          66.5208   92.6740   11.6590 C.ar    1  UNL1       -0.0000
     20 C          65.7717   92.5796   10.3630 C.ar    1  UNL1       -0.0003
     21 C          64.3877   92.0016   10.3370 C.ar    1  UNL1       -0.0042
     22 C          63.0263   86.9011    9.3634 C.3     1  UNL1        0.0992
     23 C          62.3157   86.0575    8.3468 C.ar    1  UNL1       -0.0061
     24 C          63.0902   85.0903    7.5014 C.ar    1  UNL1       -0.0029
     25 C          62.3796   84.2467    6.4849 C.ar    1  UNL1       -0.0003
     26 C          60.8946   84.3703    6.3137 C.ar    1  UNL1       -0.0000
     27 C          60.1201   85.3375    7.1591 C.ar    1  UNL1       -0.0003
     28 C          60.8306   86.1811    8.1757 C.ar    1  UNL1       -0.0029
     29 C          61.6952   85.9335   11.3738 C.3     1  UNL1        0.0926
     30 C          62.4253   84.9138   12.1967 C.3     1  UNL1        0.0950
     31 O          65.1223   84.3339   13.3757 O.2     1  UNL1       -0.2264
     32 C          64.0255   84.8766   14.2432 C.2     1  UNL1        0.4020
     33 N          62.6770   85.1665   13.6537 N.am    1  UNL1       -0.2706
     34 H          61.9572   85.5227   14.2231 H       1  UNL1        0.1527
     35 O          64.2773   85.1293   15.7002 O.3     1  UNL1       -0.4291
     36 C          63.3866   86.0636   16.4642 C.3     1  UNL1        0.2447
     37 C          63.4701   87.5422   16.2257 C.ar    1  UNL1        0.0714
     38 C          62.9643   88.6136   17.1457 C.ar    1  UNL1        0.1053
     39 N          63.2556   89.9426   16.5140 N.ar    1  UNL1       -0.2350
     40 C          63.9414   89.6925   15.2035 C.ar    1  UNL1        0.1343
     41 S          64.0740   88.2090   15.0254 S.2     1  UNL1       -0.0652
     42 C          62.9036   83.6413   11.5627 C.3     1  UNL1        0.0474
     43 C          62.5939   82.3212   12.2040 C.ar    1  UNL1       -0.0205
     44 C          61.8932   82.2774   13.5295 C.ar    1  UNL1       -0.0042
     45 C          61.5835   80.9572   14.1708 C.ar    1  UNL1       -0.0003
     46 C          61.9744   79.6809   13.4866 C.ar    1  UNL1       -0.0000
     47 C          62.6750   79.7248   12.1611 C.ar    1  UNL1       -0.0003
     48 C          62.9848   81.0449   11.5197 C.ar    1  UNL1       -0.0042
@<TRIPOS>BOND
     1    31    32    2
     2    32    33   am
     3    33    30    1
     4    30    42    1
     5    42    43    1
     6    43    44   ar
     7    44    45   ar
     8    45    46   ar
     9    46    47   ar
    10    47    48   ar
    11    30    29    1
    12    29     1    1
    13     1    22    1
    14    22    23    1
    15    23    24   ar
    16    24    25   ar
    17    25    26   ar
    18    26    27   ar
    19    27    28   ar
    20     1     2    1
    21     3     2    1
    22     3    15    1
    23    15    16    1
    24    16    17   ar
    25    17    18   ar
    26    18    19   ar
    27    19    20   ar
    28    20    21   ar
    29     3     4    1
    30     4     5   am
    31     5     6    2
    32     5     8    1
    33     8     9    1
    34     9    10    1
    35    10    11   ar
    36    11    12   ar
    37    12    13   ar
    38    13    14   ar
    39    32    35    1
    40    35    36    1
    41    36    37    1
    42    37    38   ar
    43    38    39   ar
    44    39    40   ar
    45    40    41   ar
    46    48    43   ar
    47    28    23   ar
    48    21    16   ar
    49    14    10   ar
    50    41    37   ar
    51    33    34    1
    52     4     7    1
@<TRIPOS>MOLECULE
*****
 48 52 0 0 0
SMALL
GASTEIGER

@<TRIPOS>ATOM
      1 N          62.2044   87.0415   11.9845 N.3     1  UNL1       -0.2661
      2 C          61.4030   88.2192   11.5147 C.3     1  UNL1        0.0926
      3 C          61.4305   88.6163   10.0686 C.3     1  UNL1        0.0950
      4 N          62.3709   89.6881    9.6028 N.am    1  UNL1       -0.2706
      5 C          62.7903   90.7786   10.5435 C.2     1  UNL1        0.4020
      6 O          62.2692   90.7973   11.9499 O.2     1  UNL1       -0.2264
      7 H          62.7129   89.6758    8.6797 H       1  UNL1        0.1527
      8 O          63.7307   91.8503   10.0778 O.3     1  UNL1       -0.4274
      9 C          64.9502   92.1811   10.8859 C.3     1  UNL1        0.2621
     10 C          65.8445   93.3099   10.4664 C.ar    1  UNL1        0.1323
     11 N          65.5836   94.7704   10.6876 N.ar    1  UNL1       -0.2374
     12 C          66.7346   95.5396   10.1099 C.ar    1  UNL1        0.1062
     13 C          67.7069   94.5545    9.5318 C.ar    1  UNL1        0.0573
     14 S          67.1568   93.1765    9.7521 S.2     1  UNL1       -0.0666
     15 C          60.5176   87.9416    9.0880 C.3     1  UNL1        0.0474
     16 C          61.0053   86.7644    8.2966 C.ar    1  UNL1       -0.0205
     17 C          60.0668   86.0351    7.3814 C.ar    1  UNL1       -0.0042
     18 C          60.5545   84.8580    6.5900 C.ar    1  UNL1       -0.0003
     19 C          61.9807   84.4100    6.7138 C.ar    1  UNL1       -0.0000
     20 C          62.9192   85.1391    7.6289 C.ar    1  UNL1       -0.0003
     21 C          62.4315   86.3164    8.4204 C.ar    1  UNL1       -0.0042
     22 C          61.6030   85.6676   11.9607 C.3     1  UNL1        0.0992
     23 C          62.4555   84.4815   11.6190 C.ar    1  UNL1       -0.0061
     24 C          63.7479   84.6741   10.8825 C.ar    1  UNL1       -0.0029
     25 C          64.6004   83.4882   10.5408 C.ar    1  UNL1       -0.0003
     26 C          64.1604   82.1096   10.9356 C.ar    1  UNL1       -0.0000
     27 C          62.8679   81.9170   11.6722 C.ar    1  UNL1       -0.0003
     28 C          62.0155   83.1030   12.0139 C.ar    1  UNL1       -0.0029
     29 C          63.6072   87.2377   12.4781 C.3     1  UNL1        0.0926
     30 C          63.8499   87.8766   13.8134 C.3     1  UNL1        0.0950
     31 O          66.0421   89.6816   14.7811 O.2     1  UNL1       -0.2264
     32 C          64.6829   90.2436   14.4869 C.2     1  UNL1        0.4020
     33 N          63.5868   89.3411   14.0031 N.am    1  UNL1       -0.2706
     34 H          62.6947   89.7100   13.8100 H       1  UNL1        0.1527
     35 O          64.4197   91.7081   14.6765 O.3     1  UNL1       -0.4291
     36 C          65.3538   92.7209   14.0835 C.3     1  UNL1        0.2447
     37 C          66.8029   92.7218   14.4705 C.ar    1  UNL1        0.0714
     38 C          67.9466   92.2797   13.6063 C.ar    1  UNL1        0.1053
     39 N          69.2135   92.4495   14.3914 N.ar    1  UNL1       -0.2350
     40 C          68.8528   92.9966   15.7407 C.ar    1  UNL1        0.1343
     41 S          67.3630   93.1648   15.7896 S.2     1  UNL1       -0.0652
     42 C          64.3558   87.0509   14.9590 C.3     1  UNL1        0.0474
     43 C          64.0934   85.5745   14.9928 C.ar    1  UNL1       -0.0205
     44 C          62.8212   85.0524   15.5920 C.ar    1  UNL1       -0.0042
     45 C          62.5587   83.5759   15.6258 C.ar    1  UNL1       -0.0003
     46 C          63.5684   82.6215   15.0606 C.ar    1  UNL1       -0.0000
     47 C          64.8406   83.1436   14.4614 C.ar    1  UNL1       -0.0003
     48 C          65.1031   84.6201   14.4276 C.ar    1  UNL1       -0.0042
@<TRIPOS>BOND
     1    31    32    2
     2    32    33   am
     3    33    30    1
     4    30    42    1
     5    42    43    1
     6    43    44   ar
     7    44    45   ar
     8    45    46   ar
     9    46    47   ar
    10    47    48   ar
    11    30    29    1
    12    29     1    1
    13     1    22    1
    14    22    23    1
    15    23    24   ar
    16    24    25   ar
    17    25    26   ar
    18    26    27   ar
    19    27    28   ar
    20     1     2    1
    21     3     2    1
    22     3    15    1
    23    15    16    1
    24    16    17   ar
    25    17    18   ar
    26    18    19   ar
    27    19    20   ar
    28    20    21   ar
    29     3     4    1
    30     4     5   am
    31     5     6    2
    32     5     8    1
    33     8     9    1
    34     9    10    1
    35    10    11   ar
    36    11    12   ar
    37    12    13   ar
    38    13    14   ar
    39    32    35    1
    40    35    36    1
    41    36    37    1
    42    37    38   ar
    43    38    39   ar
    44    39    40   ar
    45    40    41   ar
    46    48    43   ar
    47    28    23   ar
    48    21    16   ar
    49    14    10   ar
    50    41    37   ar
    51    33    34    1
    52     4     7    1
