@<TRIPOS>MOLECULE
*****
 41 43 0 0 0
SMALL
GASTEIGER

@<TRIPOS>ATOM
      1 N          63.3308   84.6604   12.5342 N.am    1  UNL1       -0.2866
      2 C          63.6715   84.0664   11.1997 C.2     1  UNL1        0.3040
      3 O          64.6594   82.9413   11.1096 O.2     1  UNL1       -0.2526
      4 N          63.0242   84.5976    9.9551 N.am    1  UNL1       -0.2641
      5 C          63.3649   84.0036    8.6205 C.3     1  UNL1        0.0949
      6 C          62.7176   84.5347    7.3760 C.3     1  UNL1        0.0217
      7 C          61.7297   85.6599    7.4660 C.3     1  UNL1        0.0062
      8 C          61.3890   86.2538    8.8006 C.3     1  UNL1        0.0514
      9 C          62.0363   85.7227   10.0451 C.3     1  UNL1        0.0977
     10 H          62.6824   85.3988   12.5933 H       1  UNL1        0.1510
     11 C          63.9781   84.1292   13.7789 C.3     1  UNL1        0.1154
     12 C          64.8554   85.0207   14.6069 C.3     1  UNL1        0.1296
     13 O          66.3281   84.7503   14.6962 O.3     1  UNL1       -0.3827
     14 H          66.5464   83.9693   14.1639 H       1  UNL1        0.2104
     15 C          64.2600   86.1824   15.3457 C.3     1  UNL1        0.0286
     16 C          63.4843   85.9502   16.6084 C.3     1  UNL1        0.0025
     17 C          62.8889   87.1120   17.3472 C.3     1  UNL1        0.0001
     18 C          63.0691   88.5059   16.8232 C.3     1  UNL1        0.0000
     19 C          63.8448   88.7381   15.5605 C.3     1  UNL1        0.0001
     20 C          64.4402   87.5763   14.8217 C.3     1  UNL1        0.0025
     21 C          63.7480   82.7067   14.1954 C.3     1  UNL1        0.0909
     22 C          61.5168   81.3757   14.2068 C.3     1  UNL1        0.0859
     23 N          62.4682   82.3224   14.8767 N.3     1  UNL1       -0.2949
     24 H          62.7249   81.8997   15.7687 H       1  UNL1        0.1233
     25 C          60.4011   87.3790    8.8906 C.3     1  UNL1        0.1391
     26 C          60.6188   88.4914    9.8729 C.ar    1  UNL1        0.0054
     27 C          59.6661   88.6796   11.0162 C.ar    1  UNL1       -0.0019
     28 C          59.8839   89.7920   11.9986 C.ar    1  UNL1        0.0006
     29 C          61.0542   90.7163   11.8377 C.ar    1  UNL1        0.0114
     30 C          62.0069   90.5282   10.6944 C.ar    1  UNL1        0.0574
     31 CL         63.1772   91.4525   10.5335 Cl      1  UNL1       -0.0823
     32 C          61.7892   89.4157    9.7120 C.ar    1  UNL1        0.0095
     33 O          59.1955   87.3916    7.9983 O.3     1  UNL1       -0.3500
     34 C          59.1553   88.2993    6.8047 C.3     1  UNL1        0.1638
     35 C          58.9048   89.7670    6.9867 C.3     1  UNL1        0.1247
     36 N          59.2710   90.7310    5.8974 N.am    1  UNL1       -0.2681
     37 C          58.1959   91.3752    5.0733 C.2     1  UNL1        0.4018
     38 O          56.7545   91.0553    5.3384 O.2     1  UNL1       -0.2264
     39 H          60.2170   90.9410    5.7234 H       1  UNL1        0.1528
     40 O          58.5621   92.3392    3.9840 O.3     1  UNL1       -0.4306
     41 C          59.9993   92.5195    3.5939 C.3     1  UNL1        0.2573
@<TRIPOS>BOND
     1    22    23    1
     2    23    21    1
     3    11    21    1
     4    11     1    1
     5     1     2   am
     6     2     3    2
     7     2     4   am
     8     4     5    1
     9     5     6    1
    10     6     7    1
    11     8     7    1
    12     8    25    1
    13    25    33    1
    14    33    34    1
    15    34    35    1
    16    35    36    1
    17    36    37   am
    18    37    38    2
    19    37    40    1
    20    40    41    1
    21    25    26    1
    22    26    27   ar
    23    27    28   ar
    24    28    29   ar
    25    29    30   ar
    26    30    31    1
    27    30    32   ar
    28     8     9    1
    29    11    12    1
    30    12    13    1
    31    12    15    1
    32    15    16    1
    33    16    17    1
    34    17    18    1
    35    18    19    1
    36    19    20    1
    37     9     4    1
    38    20    15    1
    39    32    26   ar
    40    23    24    1
    41     1    10    1
    42    36    39    1
    43    13    14    1
@<TRIPOS>MOLECULE
*****
 41 43 0 0 0
SMALL
GASTEIGER

@<TRIPOS>ATOM
      1 N          64.0728   85.0047   13.4198 N.am    1  UNL1       -0.2866
      2 C          63.6566   85.2511   14.8396 C.2     1  UNL1        0.3040
      3 O          63.3248   84.0946   15.7354 O.2     1  UNL1       -0.2526
      4 N          63.5720   86.6541   15.3637 N.am    1  UNL1       -0.2641
      5 C          63.1558   86.9005   16.7836 C.3     1  UNL1        0.0949
      6 C          63.0713   88.3034   17.3076 C.3     1  UNL1        0.0217
      7 C          63.4031   89.4599   16.4119 C.3     1  UNL1        0.0062
      8 C          63.8193   89.2135   14.9920 C.3     1  UNL1        0.0514
      9 C          63.9038   87.8106   14.4680 C.3     1  UNL1        0.0977
     10 H          64.2906   85.7638   12.8319 H       1  UNL1        0.1510
     11 C          64.1574   83.6018   12.8956 C.3     1  UNL1        0.1154
     12 C          63.9384   83.3319   11.4364 C.3     1  UNL1        0.1296
     13 O          64.4812   82.0787   10.8159 O.3     1  UNL1       -0.3827
     14 H          64.9433   81.5575   11.4909 H       1  UNL1        0.2104
     15 C          63.1769   84.3151   10.5979 C.3     1  UNL1        0.0286
     16 C          63.5114   84.4790    9.1449 C.3     1  UNL1        0.0025
     17 C          62.7498   85.4623    8.3062 C.3     1  UNL1        0.0001
     18 C          61.6537   86.2815    8.9206 C.3     1  UNL1        0.0000
     19 C          61.3192   86.1175   10.3736 C.3     1  UNL1        0.0001
     20 C          62.0808   85.1343   11.2122 C.3     1  UNL1        0.0025
     21 C          64.4608   82.4688   13.8307 C.3     1  UNL1        0.0909
     22 C          62.0625   81.4888   14.0250 C.3     1  UNL1        0.0859
     23 N          63.5430   81.2843   13.8963 N.3     1  UNL1       -0.2949
     24 H          63.6929   80.7479   13.0417 H       1  UNL1        0.1233
     25 C          64.1511   90.3700   14.0963 C.3     1  UNL1        0.1391
     26 C          63.4845   90.4980   12.7587 C.ar    1  UNL1        0.0054
     27 C          64.1600   91.2543   11.6533 C.ar    1  UNL1       -0.0019
     28 C          63.4934   91.3823   10.3157 C.ar    1  UNL1        0.0006
     29 C          62.1512   90.7541   10.0835 C.ar    1  UNL1        0.0114
     30 C          61.4757   89.9979   11.1888 C.ar    1  UNL1        0.0574
     31 CL         60.1335   89.3696   10.9565 Cl      1  UNL1       -0.0823
     32 C          62.1423   89.8698   12.5264 C.ar    1  UNL1        0.0095
     33 O          65.1496   91.3985   14.5381 O.3     1  UNL1       -0.3500
     34 C          66.6086   91.0542   14.5888 C.3     1  UNL1        0.1638
     35 C          67.6085   91.9196   13.8807 C.3     1  UNL1        0.1247
     36 N          67.2600   92.5431   12.5617 N.am    1  UNL1       -0.2681
     37 C          66.5315   93.8536   12.5207 C.2     1  UNL1        0.4018
     38 O          66.1516   94.5408   13.7988 O.2     1  UNL1       -0.2264
     39 H          67.5094   92.0921   11.7228 H       1  UNL1        0.1528
     40 O          66.1830   94.4771   11.2016 O.3     1  UNL1       -0.4306
     41 C          66.6338   93.8318    9.9247 C.3     1  UNL1        0.2573
@<TRIPOS>BOND
     1    22    23    1
     2    23    21    1
     3    11    21    1
     4    11     1    1
     5     1     2   am
     6     2     3    2
     7     2     4   am
     8     4     5    1
     9     5     6    1
    10     6     7    1
    11     8     7    1
    12     8    25    1
    13    25    33    1
    14    33    34    1
    15    34    35    1
    16    35    36    1
    17    36    37   am
    18    37    38    2
    19    37    40    1
    20    40    41    1
    21    25    26    1
    22    26    27   ar
    23    27    28   ar
    24    28    29   ar
    25    29    30   ar
    26    30    31    1
    27    30    32   ar
    28     8     9    1
    29    11    12    1
    30    12    13    1
    31    12    15    1
    32    15    16    1
    33    16    17    1
    34    17    18    1
    35    18    19    1
    36    19    20    1
    37     9     4    1
    38    20    15    1
    39    32    26   ar
    40    23    24    1
    41     1    10    1
    42    36    39    1
    43    13    14    1
@<TRIPOS>MOLECULE
*****
 41 43 0 0 0
SMALL
GASTEIGER

@<TRIPOS>ATOM
      1 N          63.8273   84.2902   13.4133 N.am    1  UNL1       -0.2866
      2 C          63.4012   84.5097   14.8346 C.2     1  UNL1        0.3040
      3 O          62.9639   83.3465   15.6747 O.2     1  UNL1       -0.2526
      4 N          63.4124   85.8925   15.4160 N.am    1  UNL1       -0.2641
      5 C          62.9864   86.1119   16.8374 C.3     1  UNL1        0.0949
      6 C          62.9976   87.4946   17.4187 C.3     1  UNL1        0.0217
      7 C          63.4350   88.6579   16.5786 C.3     1  UNL1        0.0062
      8 C          63.8610   88.4384   15.1573 C.3     1  UNL1        0.0514
      9 C          63.8498   87.0557   14.5760 C.3     1  UNL1        0.0977
     10 H          64.1143   85.0537   12.8620 H       1  UNL1        0.1510
     11 C          63.8160   82.9075   12.8319 C.3     1  UNL1        0.1154
     12 C          63.4301   82.7002   11.3973 C.3     1  UNL1        0.1296
     13 O          63.4393   81.3199   10.8101 O.3     1  UNL1       -0.3827
     14 H          63.7162   80.6825   11.4868 H       1  UNL1        0.2104
     15 C          63.0351   83.8731   10.5499 C.3     1  UNL1        0.0286
     16 C          62.0944   84.9076   11.0929 C.3     1  UNL1        0.0025
     17 C          61.6993   86.0807   10.2455 C.3     1  UNL1        0.0001
     18 C          62.2449   86.2191    8.8552 C.3     1  UNL1        0.0000
     19 C          63.1856   85.1845    8.3122 C.3     1  UNL1        0.0001
     20 C          63.5807   84.0116    9.1596 C.3     1  UNL1        0.0025
     21 C          64.1906   81.7321   13.6852 C.3     1  UNL1        0.0909
     22 C          61.7246   80.9570   13.9457 C.3     1  UNL1        0.0859
     23 N          63.1915   80.6433   13.9424 N.3     1  UNL1       -0.2949
     24 H          63.3391   79.9328   13.2256 H       1  UNL1        0.1233
     25 C          64.2984   89.6016   14.3173 C.3     1  UNL1        0.1391
     26 C          65.1030   90.7090   14.9305 C.ar    1  UNL1        0.0054
     27 C          64.5121   91.5489   16.0239 C.ar    1  UNL1       -0.0019
     28 C          65.3167   92.6563   16.6371 C.ar    1  UNL1        0.0006
     29 C          66.7124   92.9240   16.1569 C.ar    1  UNL1        0.0114
     30 C          67.3033   92.0842   15.0636 C.ar    1  UNL1        0.0574
     31 CL         68.6990   92.3518   14.5834 Cl      1  UNL1       -0.0823
     32 C          66.4987   90.9767   14.4503 C.ar    1  UNL1        0.0095
     33 O          63.9310   89.6574   12.8641 O.3     1  UNL1       -0.3500
     34 C          62.9717   90.7005   12.3724 C.3     1  UNL1        0.1638
     35 C          62.7581   90.8884   10.8996 C.3     1  UNL1        0.1247
     36 N          61.9979   89.8606   10.1149 N.am    1  UNL1       -0.2681
     37 C          60.4981   89.8577   10.1379 C.2     1  UNL1        0.4018
     38 O          59.7584   90.8827   10.9456 O.2     1  UNL1       -0.2264
     39 H          62.4834   89.1879    9.5848 H       1  UNL1        0.1528
     40 O          59.7380   88.8299    9.3532 O.3     1  UNL1       -0.4306
     41 C          59.7778   88.8507    7.8538 C.3     1  UNL1        0.2573
@<TRIPOS>BOND
     1    22    23    1
     2    23    21    1
     3    11    21    1
     4    11     1    1
     5     1     2   am
     6     2     3    2
     7     2     4   am
     8     4     5    1
     9     5     6    1
    10     6     7    1
    11     8     7    1
    12     8    25    1
    13    25    33    1
    14    33    34    1
    15    34    35    1
    16    35    36    1
    17    36    37   am
    18    37    38    2
    19    37    40    1
    20    40    41    1
    21    25    26    1
    22    26    27   ar
    23    27    28   ar
    24    28    29   ar
    25    29    30   ar
    26    30    31    1
    27    30    32   ar
    28     8     9    1
    29    11    12    1
    30    12    13    1
    31    12    15    1
    32    15    16    1
    33    16    17    1
    34    17    18    1
    35    18    19    1
    36    19    20    1
    37     9     4    1
    38    20    15    1
    39    32    26   ar
    40    23    24    1
    41     1    10    1
    42    36    39    1
    43    13    14    1
@<TRIPOS>MOLECULE
*****
 41 43 0 0 0
SMALL
GASTEIGER

@<TRIPOS>ATOM
      1 N          64.1409   85.4200   13.8354 N.am    1  UNL1       -0.2866
      2 C          63.5928   85.9336   15.1338 C.2     1  UNL1        0.3040
      3 O          62.9990   84.9793   16.1271 O.2     1  UNL1       -0.2526
      4 N          63.6385   87.4016   15.4388 N.am    1  UNL1       -0.2641
      5 C          63.0904   87.9153   16.7371 C.3     1  UNL1        0.0949
      6 C          63.1362   89.3832   17.0421 C.3     1  UNL1        0.0217
      7 C          63.7299   90.3374   16.0487 C.3     1  UNL1        0.0062
      8 C          64.2780   89.8238   14.7504 C.3     1  UNL1        0.0514
      9 C          64.2323   88.3559   14.4454 C.3     1  UNL1        0.0977
     10 H          64.5306   86.0463   13.1835 H       1  UNL1        0.1510
     11 C          64.0951   83.9519   13.5304 C.3     1  UNL1        0.1154
     12 C          64.1317   83.4802   12.1070 C.3     1  UNL1        0.1296
     13 O          64.9201   82.2574   11.7421 O.3     1  UNL1       -0.3827
     14 H          65.3418   81.8955   12.5371 H       1  UNL1        0.2104
     15 C          63.3798   84.2313   11.0484 C.3     1  UNL1        0.0286
     16 C          63.7982   84.1235    9.6121 C.3     1  UNL1        0.0025
     17 C          63.0463   84.8746    8.5534 C.3     1  UNL1        0.0001
     18 C          61.8760   85.7335    8.9313 C.3     1  UNL1        0.0000
     19 C          61.4576   85.8413   10.3678 C.3     1  UNL1        0.0001
     20 C          62.2095   85.0902   11.4263 C.3     1  UNL1        0.0025
     21 C          64.0130   82.9558   14.6488 C.3     1  UNL1        0.0909
     22 C          61.9900   81.3934   14.1832 C.3     1  UNL1        0.0859
     23 N          62.6830   82.3957   15.0580 N.3     1  UNL1       -0.2949
     24 H          62.8176   81.9508   15.9659 H       1  UNL1        0.1233
     25 C          64.8718   90.7781   13.7570 C.3     1  UNL1        0.1391
     26 C          65.8991   91.7777   14.1989 C.ar    1  UNL1        0.0054
     27 C          65.8768   93.1713   13.6443 C.ar    1  UNL1       -0.0019
     28 C          66.9041   94.1709   14.0862 C.ar    1  UNL1        0.0006
     29 C          67.9539   93.7770   15.0826 C.ar    1  UNL1        0.0114
     30 C          67.9763   92.3835   15.6371 C.ar    1  UNL1        0.0574
     31 CL         69.0261   91.9895   16.6335 Cl      1  UNL1       -0.0823
     32 C          66.9489   91.3838   15.1953 C.ar    1  UNL1        0.0095
     33 O          64.4382   90.7328   12.3218 O.3     1  UNL1       -0.3500
     34 C          62.9778   90.7261   11.9794 C.3     1  UNL1        0.1638
     35 C          62.3033   89.4423   11.5958 C.3     1  UNL1        0.1247
     36 N          61.9511   89.1795   10.1616 N.am    1  UNL1       -0.2681
     37 C          60.5883   89.5363    9.6465 C.2     1  UNL1        0.4018
     38 O          59.5776   90.1558   10.5656 O.2     1  UNL1       -0.2264
     39 H          62.6144   88.7729    9.5584 H       1  UNL1        0.1528
     40 O          60.2361   89.2735    8.2123 O.3     1  UNL1       -0.4306
     41 C          59.2212   88.2234    7.8695 C.3     1  UNL1        0.2573
@<TRIPOS>BOND
     1    22    23    1
     2    23    21    1
     3    11    21    1
     4    11     1    1
     5     1     2   am
     6     2     3    2
     7     2     4   am
     8     4     5    1
     9     5     6    1
    10     6     7    1
    11     8     7    1
    12     8    25    1
    13    25    33    1
    14    33    34    1
    15    34    35    1
    16    35    36    1
    17    36    37   am
    18    37    38    2
    19    37    40    1
    20    40    41    1
    21    25    26    1
    22    26    27   ar
    23    27    28   ar
    24    28    29   ar
    25    29    30   ar
    26    30    31    1
    27    30    32   ar
    28     8     9    1
    29    11    12    1
    30    12    13    1
    31    12    15    1
    32    15    16    1
    33    16    17    1
    34    17    18    1
    35    18    19    1
    36    19    20    1
    37     9     4    1
    38    20    15    1
    39    32    26   ar
    40    23    24    1
    41     1    10    1
    42    36    39    1
    43    13    14    1
@<TRIPOS>MOLECULE
*****
 41 43 0 0 0
SMALL
GASTEIGER

@<TRIPOS>ATOM
      1 N          65.0033   90.4778   13.5278 N.am    1  UNL1       -0.2866
      2 C          64.3201   90.3473   14.8567 C.2     1  UNL1        0.3040
      3 O          64.0265   91.5713   15.6725 O.2     1  UNL1       -0.2526
      4 N          63.9304   88.9927   15.3698 N.am    1  UNL1       -0.2641
      5 C          63.2472   88.8621   16.6988 C.3     1  UNL1        0.0949
      6 C          62.8575   87.5075   17.2118 C.3     1  UNL1        0.0217
      7 C          63.1511   86.2835   16.3960 C.3     1  UNL1        0.0062
      8 C          63.8344   86.4141   15.0671 C.3     1  UNL1        0.0514
      9 C          64.2240   87.7686   14.5540 C.3     1  UNL1        0.0977
     10 H          65.1960   89.6745   12.9923 H       1  UNL1        0.1510
     11 C          65.3930   91.8325   13.0146 C.3     1  UNL1        0.1154
     12 C          65.0504   92.2291   11.6092 C.3     1  UNL1        0.1296
     13 O          63.7590   91.7753   10.9954 O.3     1  UNL1       -0.3827
     14 H          63.2673   91.2385   11.6366 H       1  UNL1        0.2104
     15 C          65.9990   93.0795   10.8174 C.3     1  UNL1        0.0286
     16 C          65.7367   94.5479   10.6595 C.3     1  UNL1        0.0025
     17 C          66.6854   95.3983    9.8678 C.3     1  UNL1        0.0001
     18 C          67.8963   94.7803    9.2340 C.3     1  UNL1        0.0000
     19 C          68.1586   93.3118    9.3920 C.3     1  UNL1        0.0001
     20 C          67.2100   92.4615   10.1837 C.3     1  UNL1        0.0025
     21 C          66.1252   92.7903   13.9069 C.3     1  UNL1        0.0909
     22 C          68.3172   92.9225   15.2953 C.3     1  UNL1        0.0859
     23 N          67.6232   92.7552   13.9760 N.3     1  UNL1       -0.2949
     24 H          67.9140   91.8516   13.6028 H       1  UNL1        0.1233
     25 C          64.1280   85.1901   14.2512 C.3     1  UNL1        0.1391
     26 C          63.6022   85.0782   12.8509 C.ar    1  UNL1        0.0054
     27 C          64.1738   84.0551   11.9146 C.ar    1  UNL1       -0.0019
     28 C          63.6480   83.9433   10.5142 C.ar    1  UNL1        0.0006
     29 C          62.5505   84.8544   10.0501 C.ar    1  UNL1        0.0114
     30 C          61.9789   85.8775   10.9864 C.ar    1  UNL1        0.0574
     31 CL         60.8814   86.7887   10.5223 Cl      1  UNL1       -0.0823
     32 C          62.5047   85.9894   12.3868 C.ar    1  UNL1        0.0095
     33 O          64.9474   84.0779   14.8357 O.3     1  UNL1       -0.3500
     34 C          64.2718   82.8520   15.3748 C.3     1  UNL1        0.1638
     35 C          63.4323   81.9992   14.4703 C.3     1  UNL1        0.1247
     36 N          61.9436   81.9563   14.6487 N.am    1  UNL1       -0.2681
     37 C          61.1508   80.8237   14.0669 C.2     1  UNL1        0.4018
     38 O          61.8467   79.7339   13.3065 O.2     1  UNL1       -0.2264
     39 H          61.4868   82.6716   15.1477 H       1  UNL1        0.1528
     40 O          59.6620   80.7809   14.2453 O.3     1  UNL1       -0.4306
     41 C          58.9825   79.4833   14.5690 C.3     1  UNL1        0.2573
@<TRIPOS>BOND
     1    22    23    1
     2    23    21    1
     3    11    21    1
     4    11     1    1
     5     1     2   am
     6     2     3    2
     7     2     4   am
     8     4     5    1
     9     5     6    1
    10     6     7    1
    11     8     7    1
    12     8    25    1
    13    25    33    1
    14    33    34    1
    15    34    35    1
    16    35    36    1
    17    36    37   am
    18    37    38    2
    19    37    40    1
    20    40    41    1
    21    25    26    1
    22    26    27   ar
    23    27    28   ar
    24    28    29   ar
    25    29    30   ar
    26    30    31    1
    27    30    32   ar
    28     8     9    1
    29    11    12    1
    30    12    13    1
    31    12    15    1
    32    15    16    1
    33    16    17    1
    34    17    18    1
    35    18    19    1
    36    19    20    1
    37     9     4    1
    38    20    15    1
    39    32    26   ar
    40    23    24    1
    41     1    10    1
    42    36    39    1
    43    13    14    1
@<TRIPOS>MOLECULE
*****
 41 43 0 0 0
SMALL
GASTEIGER

@<TRIPOS>ATOM
      1 N          63.9673   85.4793   13.4919 N.am    1  UNL1       -0.2866
      2 C          63.5105   85.6949   14.9042 C.2     1  UNL1        0.3040
      3 O          63.0779   84.5263   15.7392 O.2     1  UNL1       -0.2526
      4 N          63.4862   87.0792   15.4816 N.am    1  UNL1       -0.2641
      5 C          63.0295   87.2947   16.8940 C.3     1  UNL1        0.0949
      6 C          63.0052   88.6789   17.4714 C.3     1  UNL1        0.0217
      7 C          63.4378   89.8475   16.6363 C.3     1  UNL1        0.0062
      8 C          63.8946   89.6320   15.2240 C.3     1  UNL1        0.0514
      9 C          63.9188   88.2478   14.6466 C.3     1  UNL1        0.0977
     10 H          64.2512   86.2463   12.9438 H       1  UNL1        0.1510
     11 C          63.9915   84.0951   12.9144 C.3     1  UNL1        0.1154
     12 C          64.0695   83.9035   11.4288 C.3     1  UNL1        0.1296
     13 O          65.0653   82.9439   10.8475 O.3     1  UNL1       -0.3827
     14 H          65.5755   82.5342   11.5636 H       1  UNL1        0.2104
     15 C          63.1517   84.6713   10.5243 C.3     1  UNL1        0.0286
     16 C          62.0111   85.4548   11.1032 C.3     1  UNL1        0.0025
     17 C          61.0933   86.2228   10.1988 C.3     1  UNL1        0.0001
     18 C          61.3161   86.2071    8.7155 C.3     1  UNL1        0.0000
     19 C          62.4568   85.4236    8.1367 C.3     1  UNL1        0.0001
     20 C          63.3745   84.6557    9.0411 C.3     1  UNL1        0.0025
     21 C          63.9379   82.9025   13.8227 C.3     1  UNL1        0.0909
     22 C          62.7532   80.5904   13.7926 C.3     1  UNL1        0.0859
     23 N          62.6841   82.0841   13.9125 N.3     1  UNL1       -0.2949
     24 H          62.2639   82.2876   14.8194 H       1  UNL1        0.1233
     25 C          64.3271   90.8006   14.3890 C.3     1  UNL1        0.1391
     26 C          65.6545   91.4520   14.6411 C.ar    1  UNL1        0.0054
     27 C          65.8572   92.2913   15.8677 C.ar    1  UNL1       -0.0019
     28 C          67.1846   92.9428   16.1198 C.ar    1  UNL1        0.0006
     29 C          68.3093   92.7550   15.1453 C.ar    1  UNL1        0.0114
     30 C          68.1067   91.9159   13.9186 C.ar    1  UNL1        0.0574
     31 CL         69.2314   91.7282   12.9441 Cl      1  UNL1       -0.0823
     32 C          66.7793   91.2643   13.6665 C.ar    1  UNL1        0.0095
     33 O          63.4323   91.3177   13.3019 O.3     1  UNL1       -0.3500
     34 C          63.5798   90.8029   11.9007 C.3     1  UNL1        0.1638
     35 C          64.2983   91.6243   10.8716 C.3     1  UNL1        0.1247
     36 N          64.8888   92.9505   11.2493 N.am    1  UNL1       -0.2681
     37 C          66.3082   93.2706   10.8850 C.2     1  UNL1        0.4018
     38 O          67.1373   92.2645   10.1431 O.2     1  UNL1       -0.2264
     39 H          64.3446   93.6109   11.7362 H       1  UNL1        0.1528
     40 O          66.8986   94.5968   11.2627 O.3     1  UNL1       -0.4306
     41 C          66.0097   95.7936   11.4284 C.3     1  UNL1        0.2573
@<TRIPOS>BOND
     1    22    23    1
     2    23    21    1
     3    11    21    1
     4    11     1    1
     5     1     2   am
     6     2     3    2
     7     2     4   am
     8     4     5    1
     9     5     6    1
    10     6     7    1
    11     8     7    1
    12     8    25    1
    13    25    33    1
    14    33    34    1
    15    34    35    1
    16    35    36    1
    17    36    37   am
    18    37    38    2
    19    37    40    1
    20    40    41    1
    21    25    26    1
    22    26    27   ar
    23    27    28   ar
    24    28    29   ar
    25    29    30   ar
    26    30    31    1
    27    30    32   ar
    28     8     9    1
    29    11    12    1
    30    12    13    1
    31    12    15    1
    32    15    16    1
    33    16    17    1
    34    17    18    1
    35    18    19    1
    36    19    20    1
    37     9     4    1
    38    20    15    1
    39    32    26   ar
    40    23    24    1
    41     1    10    1
    42    36    39    1
    43    13    14    1
@<TRIPOS>MOLECULE
*****
 41 43 0 0 0
SMALL
GASTEIGER

@<TRIPOS>ATOM
      1 N          64.7041   90.2007   13.2824 N.am    1  UNL1       -0.2866
      2 C          63.8334   90.3342   12.0683 C.2     1  UNL1        0.3040
      3 O          63.7431   91.6484   11.3508 O.2     1  UNL1       -0.2526
      4 N          63.0528   89.1534   11.5716 N.am    1  UNL1       -0.2641
      5 C          62.1821   89.2869   10.3576 C.3     1  UNL1        0.0949
      6 C          61.4016   88.1061    9.8610 C.3     1  UNL1        0.0217
      7 C          61.4918   86.7919   10.5785 C.3     1  UNL1        0.0062
      8 C          62.3626   86.6585   11.7925 C.3     1  UNL1        0.0514
      9 C          63.1430   87.8392   12.2891 C.3     1  UNL1        0.0977
     10 H          64.7633   89.3382   13.7533 H       1  UNL1        0.1510
     11 C          65.4846   91.3815   13.7790 C.3     1  UNL1        0.1154
     12 C          66.7685   91.7684   13.1067 C.3     1  UNL1        0.1296
     13 O          68.0671   91.1819   13.5756 O.3     1  UNL1       -0.3827
     14 H          67.9002   90.5767   14.3151 H       1  UNL1        0.2104
     15 C          66.7538   92.7417   11.9655 C.3     1  UNL1        0.0286
     16 C          67.3402   92.3530   10.6407 C.3     1  UNL1        0.0025
     17 C          67.3255   93.3263    9.4994 C.3     1  UNL1        0.0001
     18 C          66.7245   94.6883    9.6829 C.3     1  UNL1        0.0000
     19 C          66.1380   95.0770   11.0078 C.3     1  UNL1        0.0001
     20 C          66.1527   94.1037   12.1490 C.3     1  UNL1        0.0025
     21 C          64.9813   92.1753   14.9480 C.3     1  UNL1        0.0909
     22 C          67.0839   92.8088   16.3365 C.3     1  UNL1        0.0859
     23 N          65.8558   93.2181   15.5786 N.3     1  UNL1       -0.2949
     24 H          66.1651   93.8361   14.8284 H       1  UNL1        0.1233
     25 C          62.4528   85.3443   12.5100 C.3     1  UNL1        0.1391
     26 C          62.9117   84.1192   11.7763 C.ar    1  UNL1        0.0054
     27 C          63.7117   84.2561   10.5147 C.ar    1  UNL1       -0.0019
     28 C          64.1707   83.0310    9.7810 C.ar    1  UNL1        0.0006
     29 C          63.8297   81.6689   10.3087 C.ar    1  UNL1        0.0114
     30 C          63.0298   81.5320   11.5701 C.ar    1  UNL1        0.0574
     31 CL         62.6888   80.1699   12.0978 Cl      1  UNL1       -0.0823
     32 C          62.5708   82.7571   12.3040 C.ar    1  UNL1        0.0095
     33 O          62.0840   85.2552   13.9612 O.3     1  UNL1       -0.3500
     34 C          62.8791   84.3805   14.8847 C.3     1  UNL1        0.1638
     35 C          63.9208   84.9852   15.7788 C.3     1  UNL1        0.1247
     36 N          63.8952   86.4560   16.0722 N.am    1  UNL1       -0.2681
     37 C          63.0126   86.9880   17.1621 C.2     1  UNL1        0.4018
     38 O          62.1556   86.0493   17.9586 O.2     1  UNL1       -0.2264
     39 H          64.4576   87.0721   15.5495 H       1  UNL1        0.1528
     40 O          62.9870   88.4588   17.4556 O.3     1  UNL1       -0.4306
     41 C          63.1408   89.4491   16.3394 C.3     1  UNL1        0.2573
@<TRIPOS>BOND
     1    22    23    1
     2    23    21    1
     3    11    21    1
     4    11     1    1
     5     1     2   am
     6     2     3    2
     7     2     4   am
     8     4     5    1
     9     5     6    1
    10     6     7    1
    11     8     7    1
    12     8    25    1
    13    25    33    1
    14    33    34    1
    15    34    35    1
    16    35    36    1
    17    36    37   am
    18    37    38    2
    19    37    40    1
    20    40    41    1
    21    25    26    1
    22    26    27   ar
    23    27    28   ar
    24    28    29   ar
    25    29    30   ar
    26    30    31    1
    27    30    32   ar
    28     8     9    1
    29    11    12    1
    30    12    13    1
    31    12    15    1
    32    15    16    1
    33    16    17    1
    34    17    18    1
    35    18    19    1
    36    19    20    1
    37     9     4    1
    38    20    15    1
    39    32    26   ar
    40    23    24    1
    41     1    10    1
    42    36    39    1
    43    13    14    1
@<TRIPOS>MOLECULE
*****
 41 43 0 0 0
SMALL
GASTEIGER

@<TRIPOS>ATOM
      1 N          63.9121   89.7961   12.5950 N.am    1  UNL1       -0.2866
      2 C          62.7604   89.4733   11.6898 C.2     1  UNL1        0.3040
      3 O          61.9630   90.5805   11.0667 O.2     1  UNL1       -0.2526
      4 N          62.4060   88.0433   11.4077 N.am    1  UNL1       -0.2641
      5 C          61.2543   87.7205   10.5025 C.3     1  UNL1        0.0949
      6 C          60.9000   86.2905   10.2204 C.3     1  UNL1        0.0217
      7 C          61.6974   85.1833   10.8436 C.3     1  UNL1        0.0062
      8 C          62.8491   85.5061   11.7487 C.3     1  UNL1        0.0514
      9 C          63.2034   86.9360   12.0308 C.3     1  UNL1        0.0977
     10 H          64.4354   89.0693   13.0039 H       1  UNL1        0.1510
     11 C          64.2664   91.2261   12.8771 C.3     1  UNL1        0.1154
     12 C          64.6040   91.6534   14.2747 C.3     1  UNL1        0.1296
     13 O          63.5275   91.7285   15.3167 O.3     1  UNL1       -0.3827
     14 H          62.6790   91.4702   14.9241 H       1  UNL1        0.2104
     15 C          66.0180   92.0057   14.6304 C.3     1  UNL1        0.0286
     16 C          66.3126   92.7156   15.9185 C.3     1  UNL1        0.0025
     17 C          67.7267   93.0679   16.2743 C.3     1  UNL1        0.0001
     18 C          68.8460   92.7102   15.3419 C.3     1  UNL1        0.0000
     19 C          68.5512   92.0003   14.0538 C.3     1  UNL1        0.0001
     20 C          67.1373   91.6480   13.6981 C.3     1  UNL1        0.0025
     21 C          64.2832   92.2287   11.7616 C.3     1  UNL1        0.0909
     22 C          66.2443   93.4439   10.5668 C.3     1  UNL1        0.0859
     23 N          65.4008   92.2189   10.7611 N.3     1  UNL1       -0.2949
     24 H          66.0330   91.4661   11.0333 H       1  UNL1        0.1233
     25 C          63.6465   84.3989   12.3719 C.3     1  UNL1        0.1391
     26 C          63.3444   82.9708   12.0265 C.ar    1  UNL1        0.0054
     27 C          63.6975   82.4364   10.6701 C.ar    1  UNL1       -0.0019
     28 C          63.3953   81.0083   10.3247 C.ar    1  UNL1        0.0006
     29 C          62.7401   80.1147   11.3356 C.ar    1  UNL1        0.0114
     30 C          62.3870   80.6490   12.6919 C.ar    1  UNL1        0.0574
     31 CL         61.7317   79.7554   13.7029 Cl      1  UNL1       -0.0823
     32 C          62.6891   82.0772   13.0374 C.ar    1  UNL1        0.0095
     33 O          64.7460   84.7197   13.3404 O.3     1  UNL1       -0.3500
     34 C          64.6322   84.2909   14.7732 C.3     1  UNL1        0.1638
     35 C          63.5870   84.9027   15.6584 C.3     1  UNL1        0.1247
     36 N          63.7029   86.3395   16.0732 N.am    1  UNL1       -0.2681
     37 C          62.9260   86.8446   17.2527 C.2     1  UNL1        0.4018
     38 O          62.0331   85.9129   18.0174 O.2     1  UNL1       -0.2264
     39 H          64.2890   86.9510   15.5714 H       1  UNL1        0.1528
     40 O          63.0420   88.2815   17.6675 O.3     1  UNL1       -0.4306
     41 C          63.0640   89.3628   16.6281 C.3     1  UNL1        0.2573
@<TRIPOS>BOND
     1    22    23    1
     2    23    21    1
     3    11    21    1
     4    11     1    1
     5     1     2   am
     6     2     3    2
     7     2     4   am
     8     4     5    1
     9     5     6    1
    10     6     7    1
    11     8     7    1
    12     8    25    1
    13    25    33    1
    14    33    34    1
    15    34    35    1
    16    35    36    1
    17    36    37   am
    18    37    38    2
    19    37    40    1
    20    40    41    1
    21    25    26    1
    22    26    27   ar
    23    27    28   ar
    24    28    29   ar
    25    29    30   ar
    26    30    31    1
    27    30    32   ar
    28     8     9    1
    29    11    12    1
    30    12    13    1
    31    12    15    1
    32    15    16    1
    33    16    17    1
    34    17    18    1
    35    18    19    1
    36    19    20    1
    37     9     4    1
    38    20    15    1
    39    32    26   ar
    40    23    24    1
    41     1    10    1
    42    36    39    1
    43    13    14    1
@<TRIPOS>MOLECULE
*****
 41 43 0 0 0
SMALL
GASTEIGER

@<TRIPOS>ATOM
      1 N          62.1890   88.5620   11.5991 N.am    1  UNL1       -0.2866
      2 C          62.2978   87.7499   10.3427 C.2     1  UNL1        0.3040
      3 O          62.0725   88.3980    9.0088 O.2     1  UNL1       -0.2526
      4 N          62.6321   86.2896   10.4201 N.am    1  UNL1       -0.2641
      5 C          62.7410   85.4775    9.1637 C.3     1  UNL1        0.0949
      6 C          63.0753   84.0174    9.2411 C.3     1  UNL1        0.0217
      7 C          63.3006   83.3692   10.5750 C.3     1  UNL1        0.0062
      8 C          63.1917   84.1813   11.8314 C.3     1  UNL1        0.0514
      9 C          62.8575   85.6415   11.7539 C.3     1  UNL1        0.0977
     10 H          62.3369   88.1366   12.4745 H       1  UNL1        0.1510
     11 C          61.8547   90.0223   11.5217 C.3     1  UNL1        0.1154
     12 C          62.8828   91.0025   11.0398 C.3     1  UNL1        0.1296
     13 O          62.7557   91.6128    9.6754 O.3     1  UNL1       -0.3827
     14 H          61.9597   91.2691    9.2403 H       1  UNL1        0.2104
     15 C          64.0380   91.3724   11.9222 C.3     1  UNL1        0.0286
     16 C          64.1606   90.7684   13.2897 C.3     1  UNL1        0.0025
     17 C          65.3158   91.1383   14.1722 C.3     1  UNL1        0.0001
     18 C          66.3483   92.1122   13.6871 C.3     1  UNL1        0.0000
     19 C          66.2257   92.7162   12.3195 C.3     1  UNL1        0.0001
     20 C          65.0705   92.3463   11.4371 C.3     1  UNL1        0.0025
     21 C          60.4924   90.5023   11.9261 C.3     1  UNL1        0.0909
     22 C          58.6248   88.9809   12.8996 C.3     1  UNL1        0.0859
     23 N          59.2955   89.6219   11.7208 N.3     1  UNL1       -0.2949
     24 H          58.5890   90.1897   11.2530 H       1  UNL1        0.1233
     25 C          63.4171   83.5332   13.1652 C.3     1  UNL1        0.1391
     26 C          62.8544   82.1706   13.4416 C.ar    1  UNL1        0.0054
     27 C          63.7516   80.9687   13.4133 C.ar    1  UNL1       -0.0019
     28 C          63.1889   79.6060   13.6896 C.ar    1  UNL1        0.0006
     29 C          61.7290   79.4451   13.9944 C.ar    1  UNL1        0.0114
     30 C          60.8318   80.6469   14.0228 C.ar    1  UNL1        0.0574
     31 CL         59.3720   80.4859   14.3275 Cl      1  UNL1       -0.0823
     32 C          61.3945   82.0096   13.7464 C.ar    1  UNL1        0.0095
     33 O          64.2052   84.2478   14.2227 O.3     1  UNL1       -0.3500
     34 C          63.7562   84.2005   15.6531 C.3     1  UNL1        0.1638
     35 C          62.4644   84.8481   16.0556 C.3     1  UNL1        0.1247
     36 N          62.4767   86.0637   16.9342 N.am    1  UNL1       -0.2681
     37 C          63.1856   87.3069   16.4848 C.2     1  UNL1        0.4018
     38 O          63.8822   87.3344   15.1566 O.2     1  UNL1       -0.2264
     39 H          62.0194   86.0457   17.8059 H       1  UNL1        0.1528
     40 O          63.1978   88.5225   17.3635 O.3     1  UNL1       -0.4306
     41 C          63.1690   89.8913   16.7505 C.3     1  UNL1        0.2573
@<TRIPOS>BOND
     1    22    23    1
     2    23    21    1
     3    11    21    1
     4    11     1    1
     5     1     2   am
     6     2     3    2
     7     2     4   am
     8     4     5    1
     9     5     6    1
    10     6     7    1
    11     8     7    1
    12     8    25    1
    13    25    33    1
    14    33    34    1
    15    34    35    1
    16    35    36    1
    17    36    37   am
    18    37    38    2
    19    37    40    1
    20    40    41    1
    21    25    26    1
    22    26    27   ar
    23    27    28   ar
    24    28    29   ar
    25    29    30   ar
    26    30    31    1
    27    30    32   ar
    28     8     9    1
    29    11    12    1
    30    12    13    1
    31    12    15    1
    32    15    16    1
    33    16    17    1
    34    17    18    1
    35    18    19    1
    36    19    20    1
    37     9     4    1
    38    20    15    1
    39    32    26   ar
    40    23    24    1
    41     1    10    1
    42    36    39    1
    43    13    14    1
