@<TRIPOS>MOLECULE
*****
 32 35 0 0 0
SMALL
GASTEIGER

@<TRIPOS>ATOM
      1 C          63.8348   89.5442   13.6629 C.2     1  UNL1        0.2320
      2 O          63.8483   88.0461   13.5868 O.2     1  UNL1       -0.2744
      3 N          62.7359   90.3190   12.9979 N.am    1  UNL1       -0.2625
      4 H          62.7270   91.3022   13.0478 H       1  UNL1        0.1568
      5 C          61.6506   89.5958   12.2567 C.ar    1  UNL1        0.1881
      6 N          60.2254   89.4503   12.7012 N.ar    1  UNL1       -0.1253
      7 N          59.4941   88.6557   11.6602 N.ar    1  UNL1       -0.1395
      8 C          60.4673   88.3101   10.5724 C.ar    1  UNL1        0.1364
      9 S          61.8001   88.8911   10.9410 S.2     1  UNL1       -0.0303
     10 C          60.1614   87.5219    9.3333 C.ar    1  UNL1        0.0477
     11 C          58.8869   87.5787    8.5444 C.ar    1  UNL1        0.1026
     12 N          59.0141   86.6304    7.3893 N.ar    1  UNL1       -0.2269
     13 C          60.3673   85.9874    7.4642 C.ar    1  UNL1        0.1406
     14 N          61.0454   84.9715    6.5936 N.ar    1  UNL1       -0.3374
     15 C          62.4326   84.5065    6.9246 C.ar    1  UNL1        0.0735
     16 C          63.1416   85.0575    8.1261 C.ar    1  UNL1        0.0186
     17 C          62.4635   86.0735    8.9967 C.ar    1  UNL1        0.0046
     18 C          61.0763   86.5384    8.6657 C.ar    1  UNL1        0.0375
     19 H          60.5800   84.6099    5.8050 H       1  UNL1        0.1674
     20 C          64.9200   90.2674   14.4040 C.3     1  UNL1        0.1117
     21 C          65.7389   93.2686   11.9400 C.ar    1  UNL1        0.0641
     22 C          66.4559   94.2071   12.8647 C.ar    1  UNL1        0.0158
     23 C          66.6609   93.8323   14.3026 C.ar    1  UNL1        0.0010
     24 C          66.1489   92.5191   14.8157 C.ar    1  UNL1       -0.0037
     25 C          65.4320   91.5806   13.8909 C.ar    1  UNL1       -0.0118
     26 C          65.2270   91.9554   12.4531 C.ar    1  UNL1        0.0121
     27 N          65.5339   93.6434   10.5020 N.pl3   1  UNL1       -0.2187
     28 H          64.6578   93.5006   10.0762 H       1  UNL1        0.1734
     29 C          67.7936   94.8281    8.9238 C.3     1  UNL1        0.1996
     30 S          66.6637   94.2358    9.7129 S.O2    1  UNL1        0.0558
     31 O          65.9777   95.5696    9.7319 O.2     1  UNL1       -0.1544
     32 O          67.3497   92.9020    9.6939 O.2     1  UNL1       -0.1544
@<TRIPOS>BOND
     1    29    30    1
     2    30    31    2
     3    30    32    2
     4    30    27    1
     5    27    21    1
     6    21    22   ar
     7    22    23   ar
     8    23    24   ar
     9    24    25   ar
    10    25    20    1
    11    20     1    1
    12     1     2    2
    13     1     3   am
    14     3     5    1
    15     5     6   ar
    16     6     7   ar
    17     7     8   ar
    18     8    10    1
    19    10    11   ar
    20    11    12   ar
    21    12    13   ar
    22    13    14   ar
    23    14    15   ar
    24    15    16   ar
    25    16    17   ar
    26    17    18   ar
    27     8     9   ar
    28    25    26   ar
    29    26    21   ar
    30     9     5   ar
    31    18    10   ar
    32    18    13    1
    33    27    28    1
    34     3     4    1
    35    14    19    1
@<TRIPOS>MOLECULE
*****
 32 35 0 0 0
SMALL
GASTEIGER

@<TRIPOS>ATOM
      1 C          63.9989   89.6303   14.9163 C.2     1  UNL1        0.2320
      2 O          62.5303   89.6299   15.2222 O.2     1  UNL1       -0.2744
      3 N          64.7502   88.3341   14.8437 N.am    1  UNL1       -0.2625
      4 H          65.7140   88.3343   14.6429 H       1  UNL1        0.1568
      5 C          64.0330   87.0374   15.0771 C.ar    1  UNL1        0.1881
      6 N          63.2849   86.6549   16.3198 N.ar    1  UNL1       -0.1253
      7 N          62.7276   85.2768   16.1195 N.ar    1  UNL1       -0.1395
      8 C          63.1311   84.8076   14.7531 C.ar    1  UNL1        0.1364
      9 S          63.9379   85.8957   14.1089 S.2     1  UNL1       -0.0303
     10 C          62.7881   83.4828   14.1388 C.ar    1  UNL1        0.0477
     11 C          61.9767   82.3968   14.7808 C.ar    1  UNL1        0.1026
     12 N          61.8834   81.2544   13.8134 N.ar    1  UNL1       -0.2269
     13 C          62.6373   81.6342   12.5734 C.ar    1  UNL1        0.1406
     14 N          62.8868   80.9039   11.2872 N.ar    1  UNL1       -0.3374
     15 C          63.6955   81.5509   10.2021 C.ar    1  UNL1        0.0735
     16 C          64.2546   82.9282   10.4033 C.ar    1  UNL1        0.0186
     17 C          64.0051   83.6585   11.6895 C.ar    1  UNL1        0.0046
     18 C          63.1964   83.0115   12.7746 C.ar    1  UNL1        0.0375
     19 H          62.5198   80.0000   11.1552 H       1  UNL1        0.1674
     20 C          64.7160   90.9269   14.6828 C.3     1  UNL1        0.1117
     21 C          65.8497   93.1763   11.6161 C.ar    1  UNL1        0.0641
     22 C          64.9550   92.6507   10.5330 C.ar    1  UNL1        0.0158
     23 C          63.9806   91.5505   10.8332 C.ar    1  UNL1        0.0010
     24 C          63.9009   90.9760   12.2164 C.ar    1  UNL1       -0.0037
     25 C          64.7957   91.5015   13.2995 C.ar    1  UNL1       -0.0118
     26 C          65.7701   92.6017   12.9994 C.ar    1  UNL1        0.0121
     27 N          66.8242   94.2765   11.3160 N.pl3   1  UNL1       -0.2187
     28 H          67.2708   94.7531   12.0526 H       1  UNL1        0.1734
     29 C          67.4123   95.0246    8.4708 C.3     1  UNL1        0.1996
     30 S          67.1182   94.6505    9.8934 S.O2    1  UNL1        0.0558
     31 O          68.1802   93.5928    9.8348 O.2     1  UNL1       -0.1544
     32 O          66.0563   95.7082    9.9520 O.2     1  UNL1       -0.1544
@<TRIPOS>BOND
     1    29    30    1
     2    30    31    2
     3    30    32    2
     4    30    27    1
     5    27    21    1
     6    21    22   ar
     7    22    23   ar
     8    23    24   ar
     9    24    25   ar
    10    25    20    1
    11    20     1    1
    12     1     2    2
    13     1     3   am
    14     3     5    1
    15     5     6   ar
    16     6     7   ar
    17     7     8   ar
    18     8    10    1
    19    10    11   ar
    20    11    12   ar
    21    12    13   ar
    22    13    14   ar
    23    14    15   ar
    24    15    16   ar
    25    16    17   ar
    26    17    18   ar
    27     8     9   ar
    28    25    26   ar
    29    26    21   ar
    30     9     5   ar
    31    18    10   ar
    32    18    13    1
    33    27    28    1
    34     3     4    1
    35    14    19    1
@<TRIPOS>MOLECULE
*****
 32 35 0 0 0
SMALL
GASTEIGER

@<TRIPOS>ATOM
      1 C          63.6072   90.3588   14.9120 C.2     1  UNL1        0.2320
      2 O          62.5265   89.5565   15.5744 O.2     1  UNL1       -0.2744
      3 N          64.0514   90.0145   13.5213 N.am    1  UNL1       -0.2625
      4 H          64.7607   90.5410   13.0866 H       1  UNL1        0.1568
      5 C          63.4150   88.8679   12.7929 C.ar    1  UNL1        0.1881
      6 N          63.5616   87.4150   13.1361 N.ar    1  UNL1       -0.1253
      7 N          62.7574   86.6222   12.1487 N.ar    1  UNL1       -0.1395
      8 C          62.1140   87.5850   11.1954 C.ar    1  UNL1        0.1364
      9 S          62.5204   88.9729   11.5935 S.2     1  UNL1       -0.0303
     10 C          61.2209   87.2234   10.0458 C.ar    1  UNL1        0.0477
     11 C          59.8198   87.7134    9.8297 C.ar    1  UNL1        0.1026
     12 N          59.3051   87.1012    8.5608 N.ar    1  UNL1       -0.2269
     13 C          60.3882   86.2327    7.9925 C.ar    1  UNL1        0.1406
     14 N          60.4492   85.3830    6.7580 N.ar    1  UNL1       -0.3374
     15 C          61.6942   84.6088    6.4413 C.ar    1  UNL1        0.0735
     16 C          62.8783   84.6843    7.3591 C.ar    1  UNL1        0.0186
     17 C          62.8173   85.5341    8.5936 C.ar    1  UNL1        0.0046
     18 C          61.5722   86.3083    8.9103 C.ar    1  UNL1        0.0375
     19 H          59.6721   85.3334    6.1556 H       1  UNL1        0.1674
     20 C          64.2435   91.5053   15.6404 C.3     1  UNL1        0.1117
     21 C          67.5217   92.2753   13.5403 C.ar    1  UNL1        0.0641
     22 C          68.4398   92.7690   14.6189 C.ar    1  UNL1        0.0158
     23 C          67.9591   92.8415   16.0379 C.ar    1  UNL1        0.0010
     24 C          66.5604   92.4203   16.3784 C.ar    1  UNL1       -0.0037
     25 C          65.6423   91.9265   15.2999 C.ar    1  UNL1       -0.0118
     26 C          66.1229   91.8540   13.8809 C.ar    1  UNL1        0.0121
     27 N          68.0023   92.2028   12.1212 N.pl3   1  UNL1       -0.2187
     28 H          68.8194   91.6986   11.9034 H       1  UNL1        0.1734
     29 C          66.4737   93.5941    9.9469 C.3     1  UNL1        0.1996
     30 S          67.2380   92.8984   11.0340 S.O2    1  UNL1        0.0558
     31 O          67.6001   91.8012   10.0774 O.2     1  UNL1       -0.1544
     32 O          66.8759   93.9955   11.9906 O.2     1  UNL1       -0.1544
@<TRIPOS>BOND
     1    29    30    1
     2    30    31    2
     3    30    32    2
     4    30    27    1
     5    27    21    1
     6    21    22   ar
     7    22    23   ar
     8    23    24   ar
     9    24    25   ar
    10    25    20    1
    11    20     1    1
    12     1     2    2
    13     1     3   am
    14     3     5    1
    15     5     6   ar
    16     6     7   ar
    17     7     8   ar
    18     8    10    1
    19    10    11   ar
    20    11    12   ar
    21    12    13   ar
    22    13    14   ar
    23    14    15   ar
    24    15    16   ar
    25    16    17   ar
    26    17    18   ar
    27     8     9   ar
    28    25    26   ar
    29    26    21   ar
    30     9     5   ar
    31    18    10   ar
    32    18    13    1
    33    27    28    1
    34     3     4    1
    35    14    19    1
@<TRIPOS>MOLECULE
*****
 32 35 0 0 0
SMALL
GASTEIGER

@<TRIPOS>ATOM
      1 C          63.8803   89.4468   15.0258 C.2     1  UNL1        0.2320
      2 O          62.5308   89.3963   15.6788 O.2     1  UNL1       -0.2744
      3 N          64.5868   88.1738   14.6645 N.am    1  UNL1       -0.2625
      4 H          65.4725   88.2070   14.2359 H       1  UNL1        0.1568
      5 C          63.9438   86.8503   14.9563 C.ar    1  UNL1        0.1881
      6 N          63.3404   86.4326   16.2646 N.ar    1  UNL1       -0.1253
      7 N          62.8150   85.0364   16.1078 N.ar    1  UNL1       -0.1395
      8 C          63.0937   84.5912   14.7028 C.ar    1  UNL1        0.1364
      9 S          63.7914   85.7123   13.9911 S.2     1  UNL1       -0.0303
     10 C          62.7374   83.2589   14.1129 C.ar    1  UNL1        0.0477
     11 C          61.9246   82.1886   14.7793 C.ar    1  UNL1        0.1026
     12 N          61.8162   81.0312   13.8313 N.ar    1  UNL1       -0.2269
     13 C          62.5619   81.3862   12.5791 C.ar    1  UNL1        0.1406
     14 N          62.7960   80.6336   11.3029 N.ar    1  UNL1       -0.3374
     15 C          63.5995   81.2578   10.2008 C.ar    1  UNL1        0.0735
     16 C          64.1688   82.6346   10.3748 C.ar    1  UNL1        0.0186
     17 C          63.9347   83.3872   11.6510 C.ar    1  UNL1        0.0046
     18 C          63.1312   82.7630   12.7532 C.ar    1  UNL1        0.0375
     19 H          62.4224   79.7299   11.1887 H       1  UNL1        0.1674
     20 C          64.5233   90.7702   14.7340 C.3     1  UNL1        0.1117
     21 C          63.5409   91.3866   10.9387 C.ar    1  UNL1        0.0641
     22 C          64.6142   92.3474   10.5205 C.ar    1  UNL1        0.0158
     23 C          65.6572   92.7824   11.5068 C.ar    1  UNL1        0.0010
     24 C          65.6269   92.2567   12.9112 C.ar    1  UNL1       -0.0037
     25 C          64.5536   91.2959   13.3294 C.ar    1  UNL1       -0.0118
     26 C          63.5105   90.8609   12.3432 C.ar    1  UNL1        0.0121
     27 N          62.4977   90.9516    9.9523 N.pl3   1  UNL1       -0.2187
     28 H          62.4557   91.3716    9.0629 H       1  UNL1        0.1734
     29 C          60.5398   88.8016   10.6901 C.3     1  UNL1        0.1996
     30 S          61.5187   89.8766   10.3212 S.O2    1  UNL1        0.0558
     31 O          60.4999   90.9225   10.6649 O.2     1  UNL1       -0.1544
     32 O          62.5376   88.8308    9.9776 O.2     1  UNL1       -0.1544
@<TRIPOS>BOND
     1    29    30    1
     2    30    31    2
     3    30    32    2
     4    30    27    1
     5    27    21    1
     6    21    22   ar
     7    22    23   ar
     8    23    24   ar
     9    24    25   ar
    10    25    20    1
    11    20     1    1
    12     1     2    2
    13     1     3   am
    14     3     5    1
    15     5     6   ar
    16     6     7   ar
    17     7     8   ar
    18     8    10    1
    19    10    11   ar
    20    11    12   ar
    21    12    13   ar
    22    13    14   ar
    23    14    15   ar
    24    15    16   ar
    25    16    17   ar
    26    17    18   ar
    27     8     9   ar
    28    25    26   ar
    29    26    21   ar
    30     9     5   ar
    31    18    10   ar
    32    18    13    1
    33    27    28    1
    34     3     4    1
    35    14    19    1
@<TRIPOS>MOLECULE
*****
 32 35 0 0 0
SMALL
GASTEIGER

@<TRIPOS>ATOM
      1 C          63.7028   89.7452   14.9649 C.2     1  UNL1        0.2320
      2 O          62.2398   89.7428   14.6335 O.2     1  UNL1       -0.2744
      3 N          64.5490   88.5522   14.6327 N.am    1  UNL1       -0.2625
      4 H          65.5092   88.5538   14.8502 H       1  UNL1        0.1568
      5 C          63.9323   87.3566   13.9690 C.ar    1  UNL1        0.1881
      6 N          63.2513   87.3436   12.6325 N.ar    1  UNL1       -0.1253
      7 N          62.7865   85.9431   12.3629 N.ar    1  UNL1       -0.1395
      8 C          63.1802   85.0907   13.5326 C.ar    1  UNL1        0.1364
      9 S          63.8884   85.9642   14.5253 S.2     1  UNL1       -0.0303
     10 C          62.9127   83.6224   13.6833 C.ar    1  UNL1        0.0477
     11 C          62.5006   82.9264   14.9465 C.ar    1  UNL1        0.1026
     12 N          62.3436   81.4663   14.6412 N.ar    1  UNL1       -0.2269
     13 C          62.6586   81.2598   13.1892 C.ar    1  UNL1        0.1406
     14 N          62.6707   80.0306   12.3297 N.ar    1  UNL1       -0.3374
     15 C          63.0344   80.1340   10.8782 C.ar    1  UNL1        0.0735
     16 C          63.3862   81.4666   10.2862 C.ar    1  UNL1        0.0186
     17 C          63.3742   82.6958   11.1457 C.ar    1  UNL1        0.0046
     18 C          63.0104   82.5924   12.5972 C.ar    1  UNL1        0.0375
     19 H          62.4398   79.1560   12.7182 H       1  UNL1        0.1674
     20 C          64.3194   90.9408   15.6286 C.3     1  UNL1        0.1117
     21 C          66.4286   92.5614   12.6833 C.ar    1  UNL1        0.0641
     22 C          67.4308   93.3628   13.4600 C.ar    1  UNL1        0.0158
     23 C          67.3958   93.3569   14.9596 C.ar    1  UNL1        0.0010
     24 C          66.3588   92.5495   15.6824 C.ar    1  UNL1       -0.0037
     25 C          65.3565   91.7481   14.9057 C.ar    1  UNL1       -0.0118
     26 C          65.3914   91.7541   13.4062 C.ar    1  UNL1        0.0121
     27 N          66.4635   92.5674   11.1837 N.pl3   1  UNL1       -0.2187
     28 H          66.2481   91.7475   10.6830 H       1  UNL1        0.1734
     29 C          67.1894   95.0777    9.7101 C.3     1  UNL1        0.1996
     30 S          66.8265   93.8225   10.4469 S.O2    1  UNL1        0.0558
     31 O          68.1730   93.2447   10.1258 O.2     1  UNL1       -0.1544
     32 O          65.4801   94.4004   10.7679 O.2     1  UNL1       -0.1544
@<TRIPOS>BOND
     1    29    30    1
     2    30    31    2
     3    30    32    2
     4    30    27    1
     5    27    21    1
     6    21    22   ar
     7    22    23   ar
     8    23    24   ar
     9    24    25   ar
    10    25    20    1
    11    20     1    1
    12     1     2    2
    13     1     3   am
    14     3     5    1
    15     5     6   ar
    16     6     7   ar
    17     7     8   ar
    18     8    10    1
    19    10    11   ar
    20    11    12   ar
    21    12    13   ar
    22    13    14   ar
    23    14    15   ar
    24    15    16   ar
    25    16    17   ar
    26    17    18   ar
    27     8     9   ar
    28    25    26   ar
    29    26    21   ar
    30     9     5   ar
    31    18    10   ar
    32    18    13    1
    33    27    28    1
    34     3     4    1
    35    14    19    1
@<TRIPOS>MOLECULE
*****
 32 35 0 0 0
SMALL
GASTEIGER

@<TRIPOS>ATOM
      1 C          64.5998   85.9102   14.8804 C.2     1  UNL1        0.2320
      2 O          65.9902   86.3519   15.2295 O.2     1  UNL1       -0.2744
      3 N          63.4825   86.9103   14.8423 N.am    1  UNL1       -0.2625
      4 H          62.5700   86.6204   14.6132 H       1  UNL1        0.1568
      5 C          63.7556   88.3521   15.1533 C.ar    1  UNL1        0.1881
      6 N          63.1568   89.1396   16.2810 N.ar    1  UNL1       -0.1253
      7 N          63.7066   90.5337   16.2158 N.ar    1  UNL1       -0.1395
      8 C          64.6450   90.6079   15.0481 C.ar    1  UNL1        0.1364
      9 S          64.6753   89.2596   14.3914 S.2     1  UNL1       -0.0303
     10 C          65.4176   91.8179   14.6132 C.ar    1  UNL1        0.0477
     11 C          66.2656   92.6861   15.4947 C.ar    1  UNL1        0.1026
     12 N          66.8499   93.7769   14.6468 N.ar    1  UNL1       -0.2269
     13 C          66.3629   93.5827   13.2414 C.ar    1  UNL1        0.1406
     14 N          66.6112   94.3520   11.9778 N.ar    1  UNL1       -0.3374
     15 C          65.9743   93.9105   10.6936 C.ar    1  UNL1        0.0735
     16 C          65.0891   92.6997   10.6729 C.ar    1  UNL1        0.0186
     17 C          64.8408   91.9305   11.9364 C.ar    1  UNL1        0.0046
     18 C          65.4777   92.3720   13.2206 C.ar    1  UNL1        0.0375
     19 H          67.1922   95.1467   11.9914 H       1  UNL1        0.1674
     20 C          64.3268   84.4684   14.5693 C.3     1  UNL1        0.1117
     21 C          62.5433   84.4742   11.0241 C.ar    1  UNL1        0.0641
     22 C          63.1464   83.2502   10.4014 C.ar    1  UNL1        0.0158
     23 C          64.1430   82.4322   11.1679 C.ar    1  UNL1        0.0010
     24 C          64.5365   82.8383   12.5572 C.ar    1  UNL1       -0.0037
     25 C          63.9333   84.0623   13.1800 C.ar    1  UNL1       -0.0118
     26 C          62.9368   84.8803   12.4135 C.ar    1  UNL1        0.0121
     27 N          61.5466   85.2923   10.2575 N.pl3   1  UNL1       -0.2187
     28 H          60.7572   84.8596    9.8590 H       1  UNL1        0.1734
     29 C          61.9591   88.2467    9.9389 C.3     1  UNL1        0.1996
     30 S          61.7529   86.7695   10.0982 S.O2    1  UNL1        0.0558
     31 O          60.8465   87.0220   11.2664 O.2     1  UNL1       -0.1544
     32 O          62.6592   86.5170    8.9301 O.2     1  UNL1       -0.1544
@<TRIPOS>BOND
     1    29    30    1
     2    30    31    2
     3    30    32    2
     4    30    27    1
     5    27    21    1
     6    21    22   ar
     7    22    23   ar
     8    23    24   ar
     9    24    25   ar
    10    25    20    1
    11    20     1    1
    12     1     2    2
    13     1     3   am
    14     3     5    1
    15     5     6   ar
    16     6     7   ar
    17     7     8   ar
    18     8    10    1
    19    10    11   ar
    20    11    12   ar
    21    12    13   ar
    22    13    14   ar
    23    14    15   ar
    24    15    16   ar
    25    16    17   ar
    26    17    18   ar
    27     8     9   ar
    28    25    26   ar
    29    26    21   ar
    30     9     5   ar
    31    18    10   ar
    32    18    13    1
    33    27    28    1
    34     3     4    1
    35    14    19    1
@<TRIPOS>MOLECULE
*****
 32 35 0 0 0
SMALL
GASTEIGER

@<TRIPOS>ATOM
      1 C          63.5282   90.2412   14.7475 C.2     1  UNL1        0.2320
      2 O          63.6707   88.8080   15.1667 O.2     1  UNL1       -0.2744
      3 N          62.8204   90.5820   13.4696 N.am    1  UNL1       -0.2625
      4 H          62.7269   91.5227   13.1945 H       1  UNL1        0.1568
      5 C          62.2553   89.4896   12.6109 C.ar    1  UNL1        0.1881
      6 N          60.8102   89.3091   12.2514 N.ar    1  UNL1       -0.1253
      7 N          60.6979   88.0939   11.3793 N.ar    1  UNL1       -0.1395
      8 C          62.0734   87.5234   11.1997 C.ar    1  UNL1        0.1364
      9 S          63.0360   88.3860   11.9609 S.2     1  UNL1       -0.0303
     10 C          62.4249   86.3043   10.3995 C.ar    1  UNL1        0.0477
     11 C          62.3101   86.1637    8.9105 C.ar    1  UNL1        0.1026
     12 N          62.7670   84.7843    8.5386 N.ar    1  UNL1       -0.2269
     13 C          63.1642   84.0723    9.7977 C.ar    1  UNL1        0.1406
     14 N          63.6911   82.6900   10.0456 N.ar    1  UNL1       -0.3374
     15 C          64.0066   82.2470   11.4435 C.ar    1  UNL1        0.0735
     16 C          63.7951   83.1865   12.5936 C.ar    1  UNL1        0.0186
     17 C          63.2682   84.5688   12.3458 C.ar    1  UNL1        0.0046
     18 C          62.9527   85.0117   10.9479 C.ar    1  UNL1        0.0375
     19 H          63.8299   82.0734    9.2907 H       1  UNL1        0.1674
     20 C          64.0933   91.3336   15.6062 C.3     1  UNL1        0.1117
     21 C          67.4125   92.3033   13.6588 C.ar    1  UNL1        0.0641
     22 C          68.1938   92.9765   14.7480 C.ar    1  UNL1        0.0158
     23 C          67.6082   93.1020   16.1233 C.ar    1  UNL1        0.0010
     24 C          66.2415   92.5544   16.4093 C.ar    1  UNL1       -0.0037
     25 C          65.4602   91.8812   15.3201 C.ar    1  UNL1       -0.0118
     26 C          66.0456   91.7557   13.9449 C.ar    1  UNL1        0.0121
     27 N          67.9980   92.1778   12.2835 N.pl3   1  UNL1       -0.2187
     28 H          68.8217   91.6567   12.1448 H       1  UNL1        0.1734
     29 C          66.6590   93.5147    9.9554 C.3     1  UNL1        0.1996
     30 S          67.3285   92.8462   11.1194 S.O2    1  UNL1        0.0558
     31 O          66.7782   93.8960   12.0388 O.2     1  UNL1       -0.1544
     32 O          67.8787   91.7965   10.2001 O.2     1  UNL1       -0.1544
@<TRIPOS>BOND
     1    29    30    1
     2    30    31    2
     3    30    32    2
     4    30    27    1
     5    27    21    1
     6    21    22   ar
     7    22    23   ar
     8    23    24   ar
     9    24    25   ar
    10    25    20    1
    11    20     1    1
    12     1     2    2
    13     1     3   am
    14     3     5    1
    15     5     6   ar
    16     6     7   ar
    17     7     8   ar
    18     8    10    1
    19    10    11   ar
    20    11    12   ar
    21    12    13   ar
    22    13    14   ar
    23    14    15   ar
    24    15    16   ar
    25    16    17   ar
    26    17    18   ar
    27     8     9   ar
    28    25    26   ar
    29    26    21   ar
    30     9     5   ar
    31    18    10   ar
    32    18    13    1
    33    27    28    1
    34     3     4    1
    35    14    19    1
@<TRIPOS>MOLECULE
*****
 32 35 0 0 0
SMALL
GASTEIGER

@<TRIPOS>ATOM
      1 C          62.8730   89.9837   11.5993 C.2     1  UNL1        0.2320
      2 O          62.7207   89.8414   10.1137 O.2     1  UNL1       -0.2744
      3 N          62.6758   88.7936   12.4908 N.am    1  UNL1       -0.2625
      4 H          62.7757   88.8870   13.4657 H       1  UNL1        0.1568
      5 C          62.3264   87.4612   11.8968 C.ar    1  UNL1        0.1881
      6 N          61.1431   87.1686   11.0226 N.ar    1  UNL1       -0.1253
      7 N          61.1845   85.7141   10.6583 N.ar    1  UNL1       -0.1395
      8 C          62.3932   85.1078   11.3073 C.ar    1  UNL1        0.1364
      9 S          63.0990   86.1876   12.0727 S.2     1  UNL1       -0.0303
     10 C          62.8211   83.6735   11.2082 C.ar    1  UNL1        0.0477
     11 C          63.6233   83.0677   10.0949 C.ar    1  UNL1        0.1026
     12 N          63.8199   81.6131   10.4038 N.ar    1  UNL1       -0.2269
     13 C          63.1393   81.3199   11.7079 C.ar    1  UNL1        0.1406
     14 N          63.0018   80.0579   12.5070 N.ar    1  UNL1       -0.3374
     15 C          62.2470   80.0695   13.8031 C.ar    1  UNL1        0.0735
     16 C          61.6297   81.3429   14.3003 C.ar    1  UNL1        0.0186
     17 C          61.7672   82.6049   13.5013 C.ar    1  UNL1        0.0046
     18 C          62.5220   82.5934   12.2051 C.ar    1  UNL1        0.0375
     19 H          63.4070   79.2221   12.1806 H       1  UNL1        0.1674
     20 C          63.2223   91.3161   12.1932 C.3     1  UNL1        0.1117
     21 C          66.9103   92.6765   11.6479 C.ar    1  UNL1        0.0641
     22 C          67.5257   92.3697   12.9810 C.ar    1  UNL1        0.0158
     23 C          66.7065   91.7116   14.0515 C.ar    1  UNL1        0.0010
     24 C          65.2722   91.3604   13.7889 C.ar    1  UNL1       -0.0037
     25 C          64.6568   91.6673   12.4558 C.ar    1  UNL1       -0.0118
     26 C          65.4758   92.3253   11.3853 C.ar    1  UNL1        0.0121
     27 N          67.7295   93.3346   10.5773 N.pl3   1  UNL1       -0.2187
     28 H          68.6223   92.9842   10.3553 H       1  UNL1        0.1734
     29 C          66.6468   95.7184    9.1125 C.3     1  UNL1        0.1996
     30 S          67.1882   94.5265    9.8449 S.O2    1  UNL1        0.0558
     31 O          66.9019   95.2008   11.1539 O.2     1  UNL1       -0.1544
     32 O          67.4744   93.8523    8.5360 O.2     1  UNL1       -0.1544
@<TRIPOS>BOND
     1    29    30    1
     2    30    31    2
     3    30    32    2
     4    30    27    1
     5    27    21    1
     6    21    22   ar
     7    22    23   ar
     8    23    24   ar
     9    24    25   ar
    10    25    20    1
    11    20     1    1
    12     1     2    2
    13     1     3   am
    14     3     5    1
    15     5     6   ar
    16     6     7   ar
    17     7     8   ar
    18     8    10    1
    19    10    11   ar
    20    11    12   ar
    21    12    13   ar
    22    13    14   ar
    23    14    15   ar
    24    15    16   ar
    25    16    17   ar
    26    17    18   ar
    27     8     9   ar
    28    25    26   ar
    29    26    21   ar
    30     9     5   ar
    31    18    10   ar
    32    18    13    1
    33    27    28    1
    34     3     4    1
    35    14    19    1
@<TRIPOS>MOLECULE
*****
 32 35 0 0 0
SMALL
GASTEIGER

@<TRIPOS>ATOM
      1 C          63.1597   89.3189   12.7368 C.2     1  UNL1        0.2320
      2 O          63.8604   88.1750   13.4083 O.2     1  UNL1       -0.2744
      3 N          62.3333   89.0754   11.5089 N.am    1  UNL1       -0.2625
      4 H          61.8734   89.8261   11.0682 H       1  UNL1        0.1568
      5 C          62.2075   87.6880   10.9524 C.ar    1  UNL1        0.1881
      6 N          61.4283   87.2947    9.7325 N.ar    1  UNL1       -0.1253
      7 N          61.5782   85.8141    9.5444 N.ar    1  UNL1       -0.1395
      8 C          62.4500   85.2924   10.6478 C.ar    1  UNL1        0.1364
      9 S          62.8390   86.4506   11.5181 S.2     1  UNL1       -0.0303
     10 C          62.8608   83.8635   10.8463 C.ar    1  UNL1        0.0477
     11 C          63.4753   82.9706    9.8094 C.ar    1  UNL1        0.1026
     12 N          63.7235   81.6319   10.4388 N.ar    1  UNL1       -0.2269
     13 C          63.2624   81.6974   11.8647 C.ar    1  UNL1        0.1406
     14 N          63.2592   80.6793   12.9662 N.ar    1  UNL1       -0.3374
     15 C          62.7227   81.0405   14.3197 C.ar    1  UNL1        0.0735
     16 C          62.1896   82.4197   14.5715 C.ar    1  UNL1        0.0186
     17 C          62.1928   83.4378   13.4699 C.ar    1  UNL1        0.0046
     18 C          62.7292   83.0766   12.1165 C.ar    1  UNL1        0.0375
     19 H          63.6091   79.7741   12.8010 H       1  UNL1        0.1674
     20 C          63.2854   90.7061   13.2934 C.3     1  UNL1        0.1117
     21 C          66.3800   93.1893   13.2115 C.ar    1  UNL1        0.0641
     22 C          66.4778   93.4721   11.7417 C.ar    1  UNL1        0.0158
     23 C          65.5113   92.8329   10.7891 C.ar    1  UNL1        0.0010
     24 C          64.4473   91.9109   11.3063 C.ar    1  UNL1       -0.0037
     25 C          64.3496   91.6281   12.7761 C.ar    1  UNL1       -0.0118
     26 C          65.3159   92.2673   13.7287 C.ar    1  UNL1        0.0121
     27 N          67.3465   93.8285   14.1642 N.pl3   1  UNL1       -0.2187
     28 H          67.5012   94.8002   14.1304 H       1  UNL1        0.1734
     29 C          68.8078   92.1459   16.1725 C.3     1  UNL1        0.1996
     30 S          68.0771   92.9872   15.1684 S.O2    1  UNL1        0.0558
     31 O          67.2475   93.5799   16.2686 O.2     1  UNL1       -0.1544
     32 O          68.9067   92.3946   14.0682 O.2     1  UNL1       -0.1544
@<TRIPOS>BOND
     1    29    30    1
     2    30    31    2
     3    30    32    2
     4    30    27    1
     5    27    21    1
     6    21    22   ar
     7    22    23   ar
     8    23    24   ar
     9    24    25   ar
    10    25    20    1
    11    20     1    1
    12     1     2    2
    13     1     3   am
    14     3     5    1
    15     5     6   ar
    16     6     7   ar
    17     7     8   ar
    18     8    10    1
    19    10    11   ar
    20    11    12   ar
    21    12    13   ar
    22    13    14   ar
    23    14    15   ar
    24    15    16   ar
    25    16    17   ar
    26    17    18   ar
    27     8     9   ar
    28    25    26   ar
    29    26    21   ar
    30     9     5   ar
    31    18    10   ar
    32    18    13    1
    33    27    28    1
    34     3     4    1
    35    14    19    1
