@<TRIPOS>MOLECULE
*****
 33 35 0 0 0
SMALL
GASTEIGER

@<TRIPOS>ATOM
      1 N          64.4258   92.6253   16.3456 N.pl3   1  UNL1       -0.3568
      2 C          64.2706   91.2050   15.8890 C.ar    1  UNL1        0.0482
      3 C          63.5339   90.2181   16.7454 C.ar    1  UNL1        0.0452
      4 C          63.3787   88.7978   16.2888 C.ar    1  UNL1        0.1598
      5 F          62.6420   87.8109   17.1452 F       1  UNL1       -0.2027
      6 C          63.9602   88.3642   14.9758 C.ar    1  UNL1        0.1497
      7 C          64.6968   89.3511   14.1194 C.ar    1  UNL1        0.0280
      8 C          64.8521   90.7714   14.5760 C.ar    1  UNL1        0.0680
      9 H          64.0442   92.9098   17.2073 H       1  UNL1        0.1424
     10 H          64.9094   93.2730   15.7835 H       1  UNL1        0.1424
     11 C          65.5888   91.7583   13.7196 C.2     1  UNL1        0.2507
     12 O          66.7159   92.5602   14.2995 O.2     1  UNL1       -0.2698
     13 N          65.1983   91.9432   12.2831 N.am    1  UNL1       -0.2803
     14 H          64.4585   91.4168   11.9025 H       1  UNL1        0.1552
     15 C          65.9349   92.9299   11.4267 C.ar    1  UNL1        0.0529
     16 C          65.7965   94.4004   11.6883 C.ar    1  UNL1        0.0171
     17 C          66.5332   95.3872   10.8318 C.ar    1  UNL1        0.0332
     18 C          67.4083   94.9035    9.7137 C.ar    1  UNL1        0.1675
     19 F          68.1450   95.8903    8.8573 F       1  UNL1       -0.2018
     20 C          67.5468   93.4330    9.4521 C.ar    1  UNL1        0.1686
     21 F          68.4219   92.9493    8.3340 F       1  UNL1       -0.2018
     22 C          66.8101   92.4462   10.3085 C.ar    1  UNL1        0.0466
     23 S          63.8049   86.9439   14.5192 S.O2    1  UNL1        0.0655
     24 O          64.1889   86.4622   15.8869 O.2     1  UNL1       -0.1527
     25 O          63.4210   87.4255   13.1515 O.2     1  UNL1       -0.1527
     26 N          63.6497   85.5235   14.0626 N.3     1  UNL1       -0.1553
     27 C          64.0650   84.3970   14.9618 C.3     1  UNL1        0.0983
     28 C          63.9098   82.9767   14.5052 C.3     1  UNL1        0.0484
     29 C          63.3393   82.6828   13.1494 C.3     1  UNL1        0.1134
     30 O          63.1840   81.2624   12.6929 O.3     1  UNL1       -0.3844
     31 C          62.9240   83.8092   12.2503 C.3     1  UNL1        0.0484
     32 C          63.0792   85.2296   12.7069 C.3     1  UNL1        0.0983
     33 H          63.9028   80.7244   13.0600 H       1  UNL1        0.2103
@<TRIPOS>BOND
     1     1     2    1
     2     2     3   ar
     3     3     4   ar
     4     4     5    1
     5     4     6   ar
     6     6    23    1
     7    23    24    2
     8    23    25    2
     9    23    26    1
    10    26    27    1
    11    27    28    1
    12    28    29    1
    13    29    30    1
    14    29    31    1
    15    31    32    1
    16     6     7   ar
    17     7     8   ar
    18     8    11    1
    19    11    12    2
    20    11    13   am
    21    13    15    1
    22    15    16   ar
    23    16    17   ar
    24    17    18   ar
    25    18    19    1
    26    18    20   ar
    27    20    21    1
    28    20    22   ar
    29     8     2   ar
    30    22    15   ar
    31    32    26    1
    32     1     9    1
    33     1    10    1
    34    30    33    1
    35    13    14    1
@<TRIPOS>MOLECULE
*****
 33 35 0 0 0
SMALL
GASTEIGER

@<TRIPOS>ATOM
      1 N          60.5453   87.4545    9.1068 N.pl3   1  UNL1       -0.3568
      2 C          61.4412   88.2979    9.9649 C.ar    1  UNL1        0.0482
      3 C          61.5703   89.7679    9.6962 C.ar    1  UNL1        0.0452
      4 C          62.4662   90.6113   10.5543 C.ar    1  UNL1        0.1598
      5 F          62.5953   92.0814   10.2856 F       1  UNL1       -0.2027
      6 C          63.2329   89.9846   11.6809 C.ar    1  UNL1        0.1497
      7 C          63.1038   88.5145   11.9495 C.ar    1  UNL1        0.0280
      8 C          62.2079   87.6712   11.0915 C.ar    1  UNL1        0.0680
      9 H          60.0421   87.8658    8.3674 H       1  UNL1        0.1424
     10 H          60.4606   86.4896    9.2832 H       1  UNL1        0.1424
     11 C          62.0788   86.2010   11.3602 C.2     1  UNL1        0.2507
     12 O          61.1952   85.3548   10.4924 O.2     1  UNL1       -0.2698
     13 N          62.8334   85.5772   12.4966 N.am    1  UNL1       -0.2803
     14 H          63.4133   86.1327   13.0662 H       1  UNL1        0.1552
     15 C          62.7043   84.1072   12.7653 C.ar    1  UNL1        0.0529
     16 C          62.3760   83.6232   14.1466 C.ar    1  UNL1        0.0171
     17 C          62.2469   82.1530   14.4153 C.ar    1  UNL1        0.0332
     18 C          62.4462   81.1670   13.3027 C.ar    1  UNL1        0.1675
     19 F          62.3171   79.6969   13.5713 F       1  UNL1       -0.2018
     20 C          62.7745   81.6510   11.9214 C.ar    1  UNL1        0.1686
     21 F          62.9738   80.6649   10.8088 F       1  UNL1       -0.2018
     22 C          62.9036   83.1210   11.6527 C.ar    1  UNL1        0.0466
     23 S          64.1287   90.8280   12.5389 S.O2    1  UNL1        0.0655
     24 O          63.5875   90.1551   13.7654 O.2     1  UNL1       -0.1527
     25 O          64.6700   91.5009   11.3124 O.2     1  UNL1       -0.1527
     26 N          65.0246   91.6713   13.3969 N.3     1  UNL1       -0.1553
     27 C          65.1735   91.3616   14.8570 C.3     1  UNL1        0.0983
     28 C          66.0694   92.2050   15.7150 C.3     1  UNL1        0.0484
     29 C          66.8163   93.3581   15.1129 C.3     1  UNL1        0.1134
     30 O          67.7121   94.2014   15.9710 O.3     1  UNL1       -0.3844
     31 C          66.6673   93.6678   13.6529 C.3     1  UNL1        0.0484
     32 C          65.7715   92.8244   12.7949 C.3     1  UNL1        0.0983
     33 H          67.3430   94.2577   16.8662 H       1  UNL1        0.2103
@<TRIPOS>BOND
     1     1     2    1
     2     2     3   ar
     3     3     4   ar
     4     4     5    1
     5     4     6   ar
     6     6    23    1
     7    23    24    2
     8    23    25    2
     9    23    26    1
    10    26    27    1
    11    27    28    1
    12    28    29    1
    13    29    30    1
    14    29    31    1
    15    31    32    1
    16     6     7   ar
    17     7     8   ar
    18     8    11    1
    19    11    12    2
    20    11    13   am
    21    13    15    1
    22    15    16   ar
    23    16    17   ar
    24    17    18   ar
    25    18    19    1
    26    18    20   ar
    27    20    21    1
    28    20    22   ar
    29     8     2   ar
    30    22    15   ar
    31    32    26    1
    32     1     9    1
    33     1    10    1
    34    30    33    1
    35    13    14    1
@<TRIPOS>MOLECULE
*****
 33 35 0 0 0
SMALL
GASTEIGER

@<TRIPOS>ATOM
      1 N          60.3026   86.8353    9.6940 N.pl3   1  UNL1       -0.3568
      2 C          61.2130   87.7616   10.4445 C.ar    1  UNL1        0.0482
      3 C          61.1188   89.2431   10.2292 C.ar    1  UNL1        0.0452
      4 C          62.0292   90.1693   10.9797 C.ar    1  UNL1        0.1598
      5 F          61.9351   91.6509   10.7644 F       1  UNL1       -0.2027
      6 C          63.0338   89.6141   11.9454 C.ar    1  UNL1        0.1497
      7 C          63.1279   88.1327   12.1606 C.ar    1  UNL1        0.0280
      8 C          62.2175   87.2064   11.4101 C.ar    1  UNL1        0.0680
      9 H          59.6432   87.1998    9.0602 H       1  UNL1        0.1424
     10 H          60.3644   85.8630    9.8353 H       1  UNL1        0.1424
     11 C          62.3117   85.7249   11.6254 C.2     1  UNL1        0.2507
     12 O          62.0242   84.7829   10.4941 O.2     1  UNL1       -0.2698
     13 N          62.6934   85.1855   12.9720 N.am    1  UNL1       -0.2803
     14 H          62.8821   85.8038   13.7145 H       1  UNL1        0.1552
     15 C          62.7876   83.7040   13.1873 C.ar    1  UNL1        0.0529
     16 C          64.0401   82.9695   12.8108 C.ar    1  UNL1        0.0171
     17 C          64.1342   81.4880   13.0261 C.ar    1  UNL1        0.0332
     18 C          62.9759   80.7410   13.6179 C.ar    1  UNL1        0.1675
     19 F          63.0701   79.2596   13.8332 F       1  UNL1       -0.2018
     20 C          61.7234   81.4755   13.9945 C.ar    1  UNL1        0.1686
     21 F          60.5651   80.7286   14.5863 F       1  UNL1       -0.2018
     22 C          61.6292   82.9570   13.7792 C.ar    1  UNL1        0.0466
     23 S          63.9442   90.5404   12.6958 S.O2    1  UNL1        0.0655
     24 O          64.2771   91.2496   11.4167 O.2     1  UNL1       -0.1527
     25 O          63.6113   89.8312   13.9750 O.2     1  UNL1       -0.1527
     26 N          64.8546   91.4667   13.4463 N.3     1  UNL1       -0.1553
     27 C          65.5867   92.5533   12.7161 C.3     1  UNL1        0.0983
     28 C          66.4971   93.4796   13.4665 C.3     1  UNL1        0.0484
     29 C          66.6754   93.3192   14.9472 C.3     1  UNL1        0.1134
     30 O          67.5859   94.2455   15.6976 O.3     1  UNL1       -0.3844
     31 C          65.9434   92.2325   15.6774 C.3     1  UNL1        0.0484
     32 C          65.0330   91.3063   14.9269 C.3     1  UNL1        0.0983
     33 H          68.3299   94.4984   15.1290 H       1  UNL1        0.2103
@<TRIPOS>BOND
     1     1     2    1
     2     2     3   ar
     3     3     4   ar
     4     4     5    1
     5     4     6   ar
     6     6    23    1
     7    23    24    2
     8    23    25    2
     9    23    26    1
    10    26    27    1
    11    27    28    1
    12    28    29    1
    13    29    30    1
    14    29    31    1
    15    31    32    1
    16     6     7   ar
    17     7     8   ar
    18     8    11    1
    19    11    12    2
    20    11    13   am
    21    13    15    1
    22    15    16   ar
    23    16    17   ar
    24    17    18   ar
    25    18    19    1
    26    18    20   ar
    27    20    21    1
    28    20    22   ar
    29     8     2   ar
    30    22    15   ar
    31    32    26    1
    32     1     9    1
    33     1    10    1
    34    30    33    1
    35    13    14    1
@<TRIPOS>MOLECULE
*****
 33 35 0 0 0
SMALL
GASTEIGER

@<TRIPOS>ATOM
      1 N          62.0028   90.9577   10.3466 N.pl3   1  UNL1       -0.3568
      2 C          62.1123   89.5147   10.7412 C.ar    1  UNL1        0.0482
      3 C          61.2646   88.4836   10.0570 C.ar    1  UNL1        0.0452
      4 C          61.3741   87.0406   10.4516 C.ar    1  UNL1        0.1598
      5 F          60.5263   86.0095    9.7674 F       1  UNL1       -0.2027
      6 C          62.3314   86.6287   11.5304 C.ar    1  UNL1        0.1497
      7 C          63.1792   87.6597   12.2146 C.ar    1  UNL1        0.0280
      8 C          63.0696   89.1027   11.8200 C.ar    1  UNL1        0.0680
      9 H          61.3745   91.2281    9.6385 H       1  UNL1        0.1424
     10 H          62.5592   91.6344   10.7957 H       1  UNL1        0.1424
     11 C          63.9174   90.1338   12.5043 C.2     1  UNL1        0.2507
     12 O          64.1270   91.4755   11.8671 O.2     1  UNL1       -0.2698
     13 N          64.5557   89.8232   13.8257 N.am    1  UNL1       -0.2803
     14 H          64.4181   88.9426   14.2439 H       1  UNL1        0.1552
     15 C          65.4034   90.8542   14.5100 C.ar    1  UNL1        0.0529
     16 C          64.8455   91.6422   15.6579 C.ar    1  UNL1        0.0171
     17 C          65.6934   92.6733   16.3422 C.ar    1  UNL1        0.0332
     18 C          67.0991   92.9163   15.8785 C.ar    1  UNL1        0.1675
     19 F          67.9468   93.9473   16.5628 F       1  UNL1       -0.2018
     20 C          67.6569   92.1283   14.7305 C.ar    1  UNL1        0.1686
     21 F          69.0626   92.3712   14.2669 F       1  UNL1       -0.2018
     22 C          66.8092   91.0972   14.0463 C.ar    1  UNL1        0.0466
     23 S          62.4410   85.1856   11.9250 S.O2    1  UNL1        0.0655
     24 O          62.8526   84.8343   10.5260 O.2     1  UNL1       -0.1527
     25 O          62.0294   85.5370   13.3240 O.2     1  UNL1       -0.1527
     26 N          62.5505   83.7426   12.3196 N.3     1  UNL1       -0.1553
     27 C          62.8843   82.7062   11.2879 C.3     1  UNL1        0.0983
     28 C          62.9938   81.2632   11.6825 C.3     1  UNL1        0.0484
     29 C          62.7696   80.8566   13.1088 C.3     1  UNL1        0.1134
     30 O          62.8792   79.4136   13.5034 O.3     1  UNL1       -0.3844
     31 C          62.4359   81.8930   14.1405 C.3     1  UNL1        0.0484
     32 C          62.3263   83.3360   13.7459 C.3     1  UNL1        0.0983
     33 H          62.5771   78.8542   12.7708 H       1  UNL1        0.2103
@<TRIPOS>BOND
     1     1     2    1
     2     2     3   ar
     3     3     4   ar
     4     4     5    1
     5     4     6   ar
     6     6    23    1
     7    23    24    2
     8    23    25    2
     9    23    26    1
    10    26    27    1
    11    27    28    1
    12    28    29    1
    13    29    30    1
    14    29    31    1
    15    31    32    1
    16     6     7   ar
    17     7     8   ar
    18     8    11    1
    19    11    12    2
    20    11    13   am
    21    13    15    1
    22    15    16   ar
    23    16    17   ar
    24    17    18   ar
    25    18    19    1
    26    18    20   ar
    27    20    21    1
    28    20    22   ar
    29     8     2   ar
    30    22    15   ar
    31    32    26    1
    32     1     9    1
    33     1    10    1
    34    30    33    1
    35    13    14    1
@<TRIPOS>MOLECULE
*****
 33 35 0 0 0
SMALL
GASTEIGER

@<TRIPOS>ATOM
      1 N          64.0765   91.8975   15.7719 N.pl3   1  UNL1       -0.3568
      2 C          63.9715   90.4720   15.3168 C.ar    1  UNL1        0.0482
      3 C          63.6008   89.3976   16.2957 C.ar    1  UNL1        0.0452
      4 C          63.4958   87.9722   15.8407 C.ar    1  UNL1        0.1598
      5 F          63.1251   86.8978   16.8196 F       1  UNL1       -0.2027
      6 C          63.7615   87.6211   14.4068 C.ar    1  UNL1        0.1497
      7 C          64.1322   88.6955   13.4279 C.ar    1  UNL1        0.0280
      8 C          64.2372   90.1209   13.8829 C.ar    1  UNL1        0.0680
      9 H          63.9021   92.1279   16.7130 H       1  UNL1        0.1424
     10 H          64.3198   92.6026   15.1294 H       1  UNL1        0.1424
     11 C          64.6079   91.1954   12.9040 C.2     1  UNL1        0.2507
     12 O          63.5965   91.6871   11.9114 O.2     1  UNL1       -0.2698
     13 N          65.9901   91.7780   12.9176 N.am    1  UNL1       -0.2803
     14 H          66.6539   91.4552   13.5691 H       1  UNL1        0.1552
     15 C          66.3609   92.8523   11.9387 C.ar    1  UNL1        0.0529
     16 C          66.9973   92.4877   10.6303 C.ar    1  UNL1        0.0171
     17 C          67.3681   93.5621    9.6514 C.ar    1  UNL1        0.0332
     18 C          67.1024   95.0011    9.9810 C.ar    1  UNL1        0.1675
     19 F          67.4731   96.0755    9.0021 F       1  UNL1       -0.2018
     20 C          66.4659   95.3657   11.2894 C.ar    1  UNL1        0.1686
     21 F          66.2002   96.8047   11.6189 F       1  UNL1       -0.2018
     22 C          66.0951   94.2914   12.2682 C.ar    1  UNL1        0.0466
     23 S          63.6565   86.1956   13.9518 S.O2    1  UNL1        0.0655
     24 O          62.9456   86.6445   12.7095 O.2     1  UNL1       -0.1527
     25 O          64.3674   85.7468   15.1940 O.2     1  UNL1       -0.1527
     26 N          63.5515   84.7702   13.4967 N.3     1  UNL1       -0.1553
     27 C          63.1854   84.4617   12.0752 C.3     1  UNL1        0.0983
     28 C          63.0805   83.0362   11.6202 C.3     1  UNL1        0.0484
     29 C          63.3416   81.9193   12.5867 C.3     1  UNL1        0.1134
     30 O          63.2366   80.4938   12.1317 O.3     1  UNL1       -0.3844
     31 C          63.7077   82.2278   14.0082 C.3     1  UNL1        0.0484
     32 C          63.8126   83.6532   14.4632 C.3     1  UNL1        0.0983
     33 H          62.5428   80.4198   11.4578 H       1  UNL1        0.2103
@<TRIPOS>BOND
     1     1     2    1
     2     2     3   ar
     3     3     4   ar
     4     4     5    1
     5     4     6   ar
     6     6    23    1
     7    23    24    2
     8    23    25    2
     9    23    26    1
    10    26    27    1
    11    27    28    1
    12    28    29    1
    13    29    30    1
    14    29    31    1
    15    31    32    1
    16     6     7   ar
    17     7     8   ar
    18     8    11    1
    19    11    12    2
    20    11    13   am
    21    13    15    1
    22    15    16   ar
    23    16    17   ar
    24    17    18   ar
    25    18    19    1
    26    18    20   ar
    27    20    21    1
    28    20    22   ar
    29     8     2   ar
    30    22    15   ar
    31    32    26    1
    32     1     9    1
    33     1    10    1
    34    30    33    1
    35    13    14    1
