@<TRIPOS>MOLECULE
*****
 32 35 0 0 0
SMALL
GASTEIGER

@<TRIPOS>ATOM
      1 N          63.7390   90.1909   13.4813 N.am    1  UNL1       -0.2713
      2 C          64.2798   89.0973   14.3540 C.3     1  UNL1        0.0987
      3 C          64.0520   87.6614   13.9850 C.3     1  UNL1        0.0489
      4 C          63.2834   87.3191   12.7431 C.ar    1  UNL1       -0.0047
      5 C          63.0556   85.8831   12.3741 C.ar    1  UNL1        0.0537
      6 CL         63.5964   84.7895   13.2468 Cl      1  UNL1       -0.0826
      7 C          62.2871   85.5407   11.1323 C.ar    1  UNL1        0.0100
      8 C          61.7463   86.6344   10.2595 C.ar    1  UNL1        0.0162
      9 C          61.9741   88.0702   10.6286 C.ar    1  UNL1        0.0600
     10 CL         61.4333   89.1638    9.7559 Cl      1  UNL1       -0.0824
     11 C          62.7427   88.4126   11.8704 C.ar    1  UNL1        0.0608
     12 C          62.9705   89.8485   12.2395 C.2     1  UNL1        0.2498
     13 O          62.4297   90.9421   11.3667 O.2     1  UNL1       -0.2699
     14 C          63.9668   91.6268   13.8504 C.3     1  UNL1        0.1283
     15 C          66.4817   92.1754   13.4974 C.ar    1  UNL1        0.1420
     16 C          67.8075   92.6062   14.0512 C.ar    1  UNL1        0.0494
     17 C          67.9442   92.9192   15.5119 C.ar    1  UNL1        0.0394
     18 C          69.2700   93.3499   16.0657 C.3     1  UNL1        0.0500
     19 N          66.7551   92.8014   16.4186 N.ar    1  UNL1       -0.3245
     20 C          65.4293   92.3706   15.8648 C.ar    1  UNL1        0.2579
     21 O          64.2402   92.2528   16.7716 O.2     1  UNL1       -0.2674
     22 C          65.2926   92.0576   14.4042 C.ar    1  UNL1        0.0875
     23 H          66.8448   93.0068   17.3773 H       1  UNL1        0.1686
     24 C          66.0691   92.9637   11.0565 C.3     1  UNL1        0.2525
     25 O          66.3450   91.8624   12.0368 O.3     1  UNL1       -0.4715
     26 C          60.9777   86.2920    9.0177 C.3     1  UNL1        0.1431
     27 C          61.6405   85.5227    7.9137 C.3     1  UNL1        0.0906
     28 C          63.0347   85.0371    7.6478 C.3     1  UNL1        0.1474
     29 O          62.5778   84.4347    6.3523 O.3     1  UNL1       -0.3534
     30 C          61.1837   84.9203    6.6181 C.3     1  UNL1        0.1474
     31 O          59.5464   86.7189    8.8799 O.3     1  UNL1       -0.3490
     32 C          59.1233   87.5583    7.7109 C.3     1  UNL1        0.1745
@<TRIPOS>BOND
     1    24    25    1
     2    25    15    1
     3    15    16   ar
     4    16    17   ar
     5    17    18    1
     6    17    19   ar
     7    19    20   ar
     8    20    21    2
     9    20    22   ar
    10    22    14    1
    11    14     1    1
    12     1     2    1
    13     2     3    1
    14     3     4    1
    15     4     5   ar
    16     5     6    1
    17     5     7   ar
    18     7     8   ar
    19     8    26    1
    20    26    31    1
    21    31    32    1
    22    26    27    1
    23    27    28    1
    24    28    29    1
    25    29    30    1
    26     8     9   ar
    27     9    10    1
    28     9    11   ar
    29    11    12    1
    30    12    13    2
    31    22    15   ar
    32    12     1   am
    33    11     4   ar
    34    30    27    1
    35    19    23    1
@<TRIPOS>MOLECULE
*****
 32 35 0 0 0
SMALL
GASTEIGER

@<TRIPOS>ATOM
      1 N          63.8947   90.3520   12.9895 N.am    1  UNL1       -0.2713
      2 C          64.3254   89.3031   13.9714 C.3     1  UNL1        0.0987
      3 C          63.9705   87.8648   13.7363 C.3     1  UNL1        0.0489
      4 C          63.1850   87.4754   12.5192 C.ar    1  UNL1       -0.0047
      5 C          62.8301   86.0370   12.2841 C.ar    1  UNL1        0.0537
      6 CL         63.2608   84.9881   13.2660 Cl      1  UNL1       -0.0826
      7 C          62.0446   85.6477   11.0670 C.ar    1  UNL1        0.0100
      8 C          61.6139   86.6967   10.0850 C.ar    1  UNL1        0.0162
      9 C          61.9687   88.1350   10.3202 C.ar    1  UNL1        0.0600
     10 CL         61.5380   89.1839    9.3383 Cl      1  UNL1       -0.0824
     11 C          62.7543   88.5243   11.5373 C.ar    1  UNL1        0.0608
     12 C          63.1091   89.9626   11.7724 C.2     1  UNL1        0.2498
     13 O          62.6784   91.0116   10.7905 O.2     1  UNL1       -0.2699
     14 C          64.2495   91.7904   13.2246 C.3     1  UNL1        0.1283
     15 C          65.5048   92.3567   15.4277 C.ar    1  UNL1        0.1420
     16 C          66.7737   92.7084   16.1463 C.ar    1  UNL1        0.0494
     17 C          68.0561   92.8453   15.3803 C.ar    1  UNL1        0.0394
     18 C          69.3250   93.1969   16.0989 C.3     1  UNL1        0.0500
     19 N          68.0696   92.6306   13.8959 N.ar    1  UNL1       -0.3245
     20 C          66.8008   92.2790   13.1773 C.ar    1  UNL1        0.2579
     21 O          66.8144   92.0642   11.6927 O.2     1  UNL1       -0.2674
     22 C          65.5184   92.1420   13.9432 C.ar    1  UNL1        0.0875
     23 H          68.9113   92.7205   13.3931 H       1  UNL1        0.1686
     24 C          63.7622   90.8671   16.6499 C.3     1  UNL1        0.2525
     25 O          64.2224   92.2198   16.1936 O.3     1  UNL1       -0.4715
     26 C          60.8283   86.3073    8.8679 C.3     1  UNL1        0.1431
     27 C          61.4812   85.5115    7.7768 C.3     1  UNL1        0.0906
     28 C          61.0131   84.8791    6.4997 C.3     1  UNL1        0.1474
     29 O          62.4046   84.3862    6.2337 O.3     1  UNL1       -0.3534
     30 C          62.8727   85.0186    7.5108 C.3     1  UNL1        0.1474
     31 O          59.3899   86.7136    8.7420 O.3     1  UNL1       -0.3490
     32 C          58.9629   87.6264    7.6308 C.3     1  UNL1        0.1745
@<TRIPOS>BOND
     1    24    25    1
     2    25    15    1
     3    15    16   ar
     4    16    17   ar
     5    17    18    1
     6    17    19   ar
     7    19    20   ar
     8    20    21    2
     9    20    22   ar
    10    22    14    1
    11    14     1    1
    12     1     2    1
    13     2     3    1
    14     3     4    1
    15     4     5   ar
    16     5     6    1
    17     5     7   ar
    18     7     8   ar
    19     8    26    1
    20    26    31    1
    21    31    32    1
    22    26    27    1
    23    27    28    1
    24    28    29    1
    25    29    30    1
    26     8     9   ar
    27     9    10    1
    28     9    11   ar
    29    11    12    1
    30    12    13    2
    31    22    15   ar
    32    12     1   am
    33    11     4   ar
    34    30    27    1
    35    19    23    1
@<TRIPOS>MOLECULE
*****
 32 35 0 0 0
SMALL
GASTEIGER

@<TRIPOS>ATOM
      1 N          62.6099   89.7411   12.6858 N.am    1  UNL1       -0.2713
      2 C          63.2315   89.4238   14.0135 C.3     1  UNL1        0.0987
      3 C          64.4573   90.1621   14.4633 C.3     1  UNL1        0.0489
      4 C          65.0616   91.2175   13.5852 C.ar    1  UNL1       -0.0047
      5 C          66.2875   91.9558   14.0351 C.ar    1  UNL1        0.0537
      6 CL         66.9091   91.6385   15.3628 Cl      1  UNL1       -0.0826
      7 C          66.8918   93.0112   13.1570 C.ar    1  UNL1        0.0100
      8 C          66.2701   93.3284   11.8292 C.ar    1  UNL1        0.0162
      9 C          65.0443   92.5902   11.3795 C.ar    1  UNL1        0.0600
     10 CL         64.4227   92.9074   10.0517 Cl      1  UNL1       -0.0824
     11 C          64.4400   91.5347   12.2575 C.ar    1  UNL1        0.0608
     12 C          63.2142   90.7965   11.8078 C.2     1  UNL1        0.2498
     13 O          62.5926   91.1137   10.4799 O.2     1  UNL1       -0.2699
     14 C          61.3840   89.0028   12.2360 C.3     1  UNL1        0.1283
     15 C          62.2447   86.8065   11.1471 C.ar    1  UNL1        0.1420
     16 C          62.3161   85.8826    9.9676 C.ar    1  UNL1        0.0494
     17 C          61.5984   86.2312    8.6973 C.ar    1  UNL1        0.0394
     18 C          61.6699   85.3073    7.5177 C.3     1  UNL1        0.0500
     19 N          60.8094   87.5036    8.6066 N.ar    1  UNL1       -0.3245
     20 C          60.7379   88.4275    9.7862 C.ar    1  UNL1        0.2579
     21 O          59.9487   89.7000    9.6955 O.2     1  UNL1       -0.2674
     22 C          61.4555   88.0790   11.0564 C.ar    1  UNL1        0.0875
     23 H          60.3383   87.7324    7.7729 H       1  UNL1        0.1686
     24 C          63.0501   85.0278   12.8609 C.3     1  UNL1        0.2525
     25 O          62.9623   86.4580   12.4173 O.3     1  UNL1       -0.4715
     26 C          66.8744   94.3839   10.9512 C.3     1  UNL1        0.1431
     27 C          67.4951   94.0034    9.6397 C.3     1  UNL1        0.0906
     28 C          68.3088   92.8430    9.1483 C.3     1  UNL1        0.1474
     29 O          68.3729   93.4653    7.7850 O.3     1  UNL1       -0.3534
     30 C          67.5593   94.6257    8.2764 C.3     1  UNL1        0.1474
     31 O          66.8579   95.8197   11.3847 O.3     1  UNL1       -0.3490
     32 C          65.7867   96.7423   10.8832 C.3     1  UNL1        0.1745
@<TRIPOS>BOND
     1    24    25    1
     2    25    15    1
     3    15    16   ar
     4    16    17   ar
     5    17    18    1
     6    17    19   ar
     7    19    20   ar
     8    20    21    2
     9    20    22   ar
    10    22    14    1
    11    14     1    1
    12     1     2    1
    13     2     3    1
    14     3     4    1
    15     4     5   ar
    16     5     6    1
    17     5     7   ar
    18     7     8   ar
    19     8    26    1
    20    26    31    1
    21    31    32    1
    22    26    27    1
    23    27    28    1
    24    28    29    1
    25    29    30    1
    26     8     9   ar
    27     9    10    1
    28     9    11   ar
    29    11    12    1
    30    12    13    2
    31    22    15   ar
    32    12     1   am
    33    11     4   ar
    34    30    27    1
    35    19    23    1
@<TRIPOS>MOLECULE
*****
 32 35 0 0 0
SMALL
GASTEIGER

@<TRIPOS>ATOM
      1 N          63.2542   90.6746   12.0356 N.am    1  UNL1       -0.2713
      2 C          62.5078   90.8485   10.7462 C.3     1  UNL1        0.0987
      3 C          61.9532   89.6510   10.0332 C.3     1  UNL1        0.0489
      4 C          62.1450   88.2795   10.6096 C.ar    1  UNL1       -0.0047
      5 C          61.5904   87.0820    9.8966 C.ar    1  UNL1        0.0537
      6 CL         60.8440   87.2560    8.6071 Cl      1  UNL1       -0.0826
      7 C          61.7822   85.7105   10.4730 C.ar    1  UNL1        0.0100
      8 C          62.5286   85.5366   11.7625 C.ar    1  UNL1        0.0162
      9 C          63.0832   86.7341   12.4755 C.ar    1  UNL1        0.0600
     10 CL         63.8295   86.5601   13.7649 Cl      1  UNL1       -0.0824
     11 C          62.8914   88.1056   11.8990 C.ar    1  UNL1        0.0608
     12 C          63.4460   89.3031   12.6120 C.2     1  UNL1        0.2498
     13 O          64.1924   89.1291   13.9015 O.2     1  UNL1       -0.2699
     14 C          63.8088   91.8721   12.7486 C.3     1  UNL1        0.1283
     15 C          65.7364   91.7766   14.4879 C.ar    1  UNL1        0.1420
     16 C          67.1997   91.8463   14.8105 C.ar    1  UNL1        0.0494
     17 C          68.1985   92.0811   13.7163 C.ar    1  UNL1        0.0394
     18 C          69.6618   92.1508   14.0389 C.3     1  UNL1        0.0500
     19 N          67.7341   92.2463   12.2996 N.ar    1  UNL1       -0.3245
     20 C          66.2709   92.1766   11.9771 C.ar    1  UNL1        0.2579
     21 O          65.8065   92.3418   10.5603 O.2     1  UNL1       -0.2674
     22 C          65.2720   91.9418   13.0712 C.ar    1  UNL1        0.0875
     23 H          68.3897   92.4004   11.5815 H       1  UNL1        0.1686
     24 C          64.7753   92.3810   16.8247 C.3     1  UNL1        0.2525
     25 O          64.7376   91.5418   15.5821 O.3     1  UNL1       -0.4715
     26 C          62.7204   84.1651   12.3389 C.3     1  UNL1        0.1431
     27 C          63.2468   83.0561   11.4768 C.3     1  UNL1        0.0906
     28 C          64.1982   82.9721   10.3202 C.3     1  UNL1        0.1474
     29 O          63.9911   81.4877   10.2577 O.3     1  UNL1       -0.3534
     30 C          63.0397   81.5718   11.4143 C.3     1  UNL1        0.1474
     31 O          62.3858   83.9026   13.7773 O.3     1  UNL1       -0.3490
     32 C          63.3795   83.2133   14.6647 C.3     1  UNL1        0.1745
@<TRIPOS>BOND
     1    24    25    1
     2    25    15    1
     3    15    16   ar
     4    16    17   ar
     5    17    18    1
     6    17    19   ar
     7    19    20   ar
     8    20    21    2
     9    20    22   ar
    10    22    14    1
    11    14     1    1
    12     1     2    1
    13     2     3    1
    14     3     4    1
    15     4     5   ar
    16     5     6    1
    17     5     7   ar
    18     7     8   ar
    19     8    26    1
    20    26    31    1
    21    31    32    1
    22    26    27    1
    23    27    28    1
    24    28    29    1
    25    29    30    1
    26     8     9   ar
    27     9    10    1
    28     9    11   ar
    29    11    12    1
    30    12    13    2
    31    22    15   ar
    32    12     1   am
    33    11     4   ar
    34    30    27    1
    35    19    23    1
@<TRIPOS>MOLECULE
*****
 32 35 0 0 0
SMALL
GASTEIGER

@<TRIPOS>ATOM
      1 N          63.1905   90.3847   12.4173 N.am    1  UNL1       -0.2713
      2 C          62.5276   90.5084   11.0775 C.3     1  UNL1        0.0987
      3 C          62.1438   89.2757   10.3139 C.3     1  UNL1        0.0489
      4 C          62.4231   87.9193   10.8900 C.ar    1  UNL1       -0.0047
      5 C          62.0394   86.6865   10.1263 C.ar    1  UNL1        0.0537
      6 CL         61.3764   86.8103    8.7865 Cl      1  UNL1       -0.0826
      7 C          62.3186   85.3300   10.7025 C.ar    1  UNL1        0.0100
      8 C          62.9817   85.2063   12.0424 C.ar    1  UNL1        0.0162
      9 C          63.3654   86.4390   12.8060 C.ar    1  UNL1        0.0600
     10 CL         64.0283   86.3152   14.1458 Cl      1  UNL1       -0.0824
     11 C          63.0861   87.7955   12.2298 C.ar    1  UNL1        0.0608
     12 C          63.4698   89.0282   12.9934 C.2     1  UNL1        0.2498
     13 O          64.1328   88.9045   14.3333 O.2     1  UNL1       -0.2699
     14 C          63.5743   91.6174   13.1810 C.3     1  UNL1        0.1283
     15 C          66.0707   92.0309   12.5920 C.ar    1  UNL1        0.1420
     16 C          67.4921   92.2314   13.0272 C.ar    1  UNL1        0.0494
     17 C          67.8385   92.2189   14.4867 C.ar    1  UNL1        0.0394
     18 C          69.2599   92.4194   14.9219 C.3     1  UNL1        0.0500
     19 N          66.7634   92.0059   15.5108 N.ar    1  UNL1       -0.3245
     20 C          65.3420   91.8054   15.0756 C.ar    1  UNL1        0.2579
     21 O          64.2670   91.5924   16.0998 O.2     1  UNL1       -0.2674
     22 C          64.9957   91.8179   13.6162 C.ar    1  UNL1        0.0875
     23 H          66.9908   91.9977   16.4687 H       1  UNL1        0.1686
     24 C          65.6649   93.3436   10.3870 C.3     1  UNL1        0.2525
     25 O          65.7244   92.0434   11.1326 O.3     1  UNL1       -0.4715
     26 C          63.2609   83.8498   12.6186 C.3     1  UNL1        0.1431
     27 C          63.2956   82.6471   11.7228 C.3     1  UNL1        0.0906
     28 C          63.9653   82.3113   10.4233 C.3     1  UNL1        0.1474
     29 O          63.3445   80.9462   10.4560 O.3     1  UNL1       -0.3534
     30 C          62.6747   81.2820   11.7555 C.3     1  UNL1        0.1474
     31 O          63.5056   83.6960   14.0904 O.3     1  UNL1       -0.3490
     32 C          62.4005   83.2262   14.9893 C.3     1  UNL1        0.1745
@<TRIPOS>BOND
     1    24    25    1
     2    25    15    1
     3    15    16   ar
     4    16    17   ar
     5    17    18    1
     6    17    19   ar
     7    19    20   ar
     8    20    21    2
     9    20    22   ar
    10    22    14    1
    11    14     1    1
    12     1     2    1
    13     2     3    1
    14     3     4    1
    15     4     5   ar
    16     5     6    1
    17     5     7   ar
    18     7     8   ar
    19     8    26    1
    20    26    31    1
    21    31    32    1
    22    26    27    1
    23    27    28    1
    24    28    29    1
    25    29    30    1
    26     8     9   ar
    27     9    10    1
    28     9    11   ar
    29    11    12    1
    30    12    13    2
    31    22    15   ar
    32    12     1   am
    33    11     4   ar
    34    30    27    1
    35    19    23    1
@<TRIPOS>MOLECULE
*****
 32 35 0 0 0
SMALL
GASTEIGER

@<TRIPOS>ATOM
      1 N          63.1285   84.8853   12.7611 N.am    1  UNL1       -0.2713
      2 C          62.3219   85.0678   11.5096 C.3     1  UNL1        0.0987
      3 C          62.0721   86.4459   10.9727 C.3     1  UNL1        0.0489
      4 C          62.6287   87.6416   11.6873 C.ar    1  UNL1       -0.0047
      5 C          62.3788   89.0198   11.1504 C.ar    1  UNL1        0.0537
      6 CL         61.5722   89.2022    9.8989 Cl      1  UNL1       -0.0826
      7 C          62.9354   90.2154   11.8649 C.ar    1  UNL1        0.0100
      8 C          63.7419   90.0329   13.1165 C.ar    1  UNL1        0.0162
      9 C          63.9918   88.6547   13.6533 C.ar    1  UNL1        0.0600
     10 CL         64.7983   88.4723   14.9048 Cl      1  UNL1       -0.0824
     11 C          63.4352   87.4591   12.9388 C.ar    1  UNL1        0.0608
     12 C          63.6851   86.0810   13.4757 C.2     1  UNL1        0.2498
     13 O          64.4916   85.8984   14.7272 O.2     1  UNL1       -0.2699
     14 C          63.3784   83.5072   13.2981 C.3     1  UNL1        0.1283
     15 C          62.4027   81.1511   12.8010 C.ar    1  UNL1        0.1420
     16 C          62.2795   79.9603   11.8971 C.ar    1  UNL1        0.0494
     17 C          63.0089   79.9348   10.5866 C.ar    1  UNL1        0.0394
     18 C          62.8857   78.7441    9.6828 C.3     1  UNL1        0.0500
     19 N          63.8614   81.1001   10.1799 N.ar    1  UNL1       -0.3245
     20 C          63.9845   82.2909   11.0837 C.ar    1  UNL1        0.2579
     21 O          64.8370   83.4562   10.6770 O.2     1  UNL1       -0.2674
     22 C          63.2552   82.3164   12.3942 C.ar    1  UNL1        0.0875
     23 H          64.3400   81.0834    9.3198 H       1  UNL1        0.1686
     24 C          60.2827   80.6228   14.2067 C.3     1  UNL1        0.2525
     25 O          61.6734   81.1766   14.1114 O.3     1  UNL1       -0.4715
     26 C          64.2986   91.2285   13.8310 C.3     1  UNL1        0.1431
     27 C          65.4583   91.9790   13.2462 C.3     1  UNL1        0.0906
     28 C          66.9429   91.9716   13.4602 C.3     1  UNL1        0.1474
     29 O          67.0982   93.0404   12.4192 O.3     1  UNL1       -0.3534
     30 C          65.6136   93.0478   12.2053 C.3     1  UNL1        0.1474
     31 O          63.6955   91.6736   15.1303 O.3     1  UNL1       -0.3490
     32 C          64.5764   91.9307   16.3169 C.3     1  UNL1        0.1745
@<TRIPOS>BOND
     1    24    25    1
     2    25    15    1
     3    15    16   ar
     4    16    17   ar
     5    17    18    1
     6    17    19   ar
     7    19    20   ar
     8    20    21    2
     9    20    22   ar
    10    22    14    1
    11    14     1    1
    12     1     2    1
    13     2     3    1
    14     3     4    1
    15     4     5   ar
    16     5     6    1
    17     5     7   ar
    18     7     8   ar
    19     8    26    1
    20    26    31    1
    21    31    32    1
    22    26    27    1
    23    27    28    1
    24    28    29    1
    25    29    30    1
    26     8     9   ar
    27     9    10    1
    28     9    11   ar
    29    11    12    1
    30    12    13    2
    31    22    15   ar
    32    12     1   am
    33    11     4   ar
    34    30    27    1
    35    19    23    1
@<TRIPOS>MOLECULE
*****
 32 35 0 0 0
SMALL
GASTEIGER

@<TRIPOS>ATOM
      1 N          63.1454   89.1558   12.7451 N.am    1  UNL1       -0.2713
      2 C          63.7537   89.0102   14.1084 C.3     1  UNL1        0.0987
      3 C          64.7752   90.0005   14.5834 C.3     1  UNL1        0.0489
      4 C          65.1885   91.1364   13.6951 C.ar    1  UNL1       -0.0047
      5 C          66.2101   92.1267   14.1702 C.ar    1  UNL1        0.0537
      6 CL         66.8184   91.9812   15.5335 Cl      1  UNL1       -0.0826
      7 C          66.6233   93.2626   13.2819 C.ar    1  UNL1        0.0100
      8 C          66.0149   93.4081   11.9185 C.ar    1  UNL1        0.0162
      9 C          64.9934   92.4178   11.4435 C.ar    1  UNL1        0.0600
     10 CL         64.3850   92.5634   10.0802 Cl      1  UNL1       -0.0824
     11 C          64.5801   91.2820   12.3318 C.ar    1  UNL1        0.0608
     12 C          63.5586   90.2917   11.8568 C.2     1  UNL1        0.2498
     13 O          62.9502   90.4372   10.4934 O.2     1  UNL1       -0.2699
     14 C          62.1237   88.1655   12.2700 C.3     1  UNL1        0.1283
     15 C          63.1880   85.8219   12.6236 C.ar    1  UNL1        0.1420
     16 C          63.6268   84.4978   12.0719 C.ar    1  UNL1        0.0494
     17 C          63.4403   84.1934   10.6150 C.ar    1  UNL1        0.0394
     18 C          63.8791   82.8693   10.0633 C.3     1  UNL1        0.0500
     19 N          62.8149   85.2129    9.7098 N.ar    1  UNL1       -0.3245
     20 C          62.3761   86.5370   10.2614 C.ar    1  UNL1        0.2579
     21 O          61.7507   87.5565    9.3562 O.2     1  UNL1       -0.2674
     22 C          62.5626   86.8414   11.7183 C.ar    1  UNL1        0.0875
     23 H          62.6925   85.0131    8.7536 H       1  UNL1        0.1686
     24 C          64.2977   85.2845   14.9103 C.3     1  UNL1        0.2525
     25 O          63.3744   86.1263   14.0804 O.3     1  UNL1       -0.4715
     26 C          66.4281   94.5440   11.0302 C.3     1  UNL1        0.1431
     27 C          67.1187   94.2649    9.7282 C.3     1  UNL1        0.0906
     28 C          67.1985   94.9575    8.4000 C.3     1  UNL1        0.1474
     29 O          68.0953   93.8702    7.8868 O.3     1  UNL1       -0.3534
     30 C          68.0156   93.1776    9.2150 C.3     1  UNL1        0.1474
     31 O          66.1508   95.9588   11.4439 O.3     1  UNL1       -0.3490
     32 C          65.1716   96.7889   10.6680 C.3     1  UNL1        0.1745
@<TRIPOS>BOND
     1    24    25    1
     2    25    15    1
     3    15    16   ar
     4    16    17   ar
     5    17    18    1
     6    17    19   ar
     7    19    20   ar
     8    20    21    2
     9    20    22   ar
    10    22    14    1
    11    14     1    1
    12     1     2    1
    13     2     3    1
    14     3     4    1
    15     4     5   ar
    16     5     6    1
    17     5     7   ar
    18     7     8   ar
    19     8    26    1
    20    26    31    1
    21    31    32    1
    22    26    27    1
    23    27    28    1
    24    28    29    1
    25    29    30    1
    26     8     9   ar
    27     9    10    1
    28     9    11   ar
    29    11    12    1
    30    12    13    2
    31    22    15   ar
    32    12     1   am
    33    11     4   ar
    34    30    27    1
    35    19    23    1
@<TRIPOS>MOLECULE
*****
 32 35 0 0 0
SMALL
GASTEIGER

@<TRIPOS>ATOM
      1 N          62.3310   89.6483   12.5833 N.am    1  UNL1       -0.2713
      2 C          62.6644   89.5603   14.0431 C.3     1  UNL1        0.0987
      3 C          63.7557   90.4152   14.6159 C.3     1  UNL1        0.0489
      4 C          64.5136   91.3581   13.7290 C.ar    1  UNL1       -0.0047
      5 C          65.6049   92.2130   14.3019 C.ar    1  UNL1        0.0537
      6 CL         65.9384   92.1250   15.7617 Cl      1  UNL1       -0.0826
      7 C          66.3627   93.1559   13.4149 C.ar    1  UNL1        0.0100
      8 C          66.0292   93.2438   11.9551 C.ar    1  UNL1        0.0162
      9 C          64.9379   92.3889   11.3822 C.ar    1  UNL1        0.0600
     10 CL         64.6045   92.4769    9.9224 Cl      1  UNL1       -0.0824
     11 C          64.1801   91.4461   12.2692 C.ar    1  UNL1        0.0608
     12 C          63.0888   90.5912   11.6964 C.2     1  UNL1        0.2498
     13 O          62.7553   90.6791   10.2365 O.2     1  UNL1       -0.2699
     14 C          61.2396   88.7934   12.0104 C.3     1  UNL1        0.1283
     15 C          61.0312   87.9117    9.5754 C.ar    1  UNL1        0.1420
     16 C          61.3542   86.8805    8.5351 C.ar    1  UNL1        0.0494
     17 C          62.2089   85.6998    8.8895 C.ar    1  UNL1        0.0394
     18 C          62.5319   84.6685    7.8492 C.3     1  UNL1        0.0500
     19 N          62.7403   85.5503   10.2842 N.ar    1  UNL1       -0.3245
     20 C          62.4173   86.5815   11.3245 C.ar    1  UNL1        0.2579
     21 O          62.9488   86.4319   12.7192 O.2     1  UNL1       -0.2674
     22 C          61.5627   87.7622   10.9701 C.ar    1  UNL1        0.0875
     23 H          63.3012   84.7753   10.5168 H       1  UNL1        0.1686
     24 C          59.6826   89.2657    7.8154 C.3     1  UNL1        0.2525
     25 O          60.1766   89.0924    9.2210 O.3     1  UNL1       -0.4715
     26 C          66.7871   94.1867   11.0681 C.3     1  UNL1        0.1431
     27 C          67.5224   93.6622    9.8705 C.3     1  UNL1        0.0906
     28 C          68.3619   92.4517    9.5875 C.3     1  UNL1        0.1474
     29 O          68.5623   92.9205    8.1768 O.3     1  UNL1       -0.3534
     30 C          67.7229   94.1310    8.4598 C.3     1  UNL1        0.1474
     31 O          66.8096   95.6540   11.3787 O.3     1  UNL1       -0.3490
     32 C          66.7918   96.6570   10.2636 C.3     1  UNL1        0.1745
@<TRIPOS>BOND
     1    24    25    1
     2    25    15    1
     3    15    16   ar
     4    16    17   ar
     5    17    18    1
     6    17    19   ar
     7    19    20   ar
     8    20    21    2
     9    20    22   ar
    10    22    14    1
    11    14     1    1
    12     1     2    1
    13     2     3    1
    14     3     4    1
    15     4     5   ar
    16     5     6    1
    17     5     7   ar
    18     7     8   ar
    19     8    26    1
    20    26    31    1
    21    31    32    1
    22    26    27    1
    23    27    28    1
    24    28    29    1
    25    29    30    1
    26     8     9   ar
    27     9    10    1
    28     9    11   ar
    29    11    12    1
    30    12    13    2
    31    22    15   ar
    32    12     1   am
    33    11     4   ar
    34    30    27    1
    35    19    23    1
@<TRIPOS>MOLECULE
*****
 32 35 0 0 0
SMALL
GASTEIGER

@<TRIPOS>ATOM
      1 N          62.8110   90.2539   11.6975 N.am    1  UNL1       -0.2713
      2 C          62.0893   90.2978   10.3833 C.3     1  UNL1        0.0987
      3 C          61.7048   89.0213    9.6958 C.3     1  UNL1        0.0489
      4 C          62.0420   87.7009   10.3226 C.ar    1  UNL1       -0.0047
      5 C          61.6575   86.4244    9.6350 C.ar    1  UNL1        0.0537
      6 CL         60.9358   86.4683    8.3208 Cl      1  UNL1       -0.0826
      7 C          61.9946   85.1040   10.2618 C.ar    1  UNL1        0.0100
      8 C          62.7164   85.0601   11.5761 C.ar    1  UNL1        0.0162
      9 C          63.1009   86.3366   12.2635 C.ar    1  UNL1        0.0600
     10 CL         63.8225   86.2927   13.5777 Cl      1  UNL1       -0.0824
     11 C          62.7637   87.6570   11.6368 C.ar    1  UNL1        0.0608
     12 C          63.1482   88.9335   12.3242 C.2     1  UNL1        0.2498
     13 O          63.8699   88.8897   13.6385 O.2     1  UNL1       -0.2699
     14 C          63.1955   91.5305   12.3850 C.3     1  UNL1        0.1283
     15 C          64.8852   91.5695   14.3582 C.ar    1  UNL1        0.1420
     16 C          66.2839   91.7553   14.8672 C.ar    1  UNL1        0.0494
     17 C          67.3917   92.0879   13.9120 C.ar    1  UNL1        0.0394
     18 C          68.7904   92.2737   14.4210 C.3     1  UNL1        0.0500
     19 N          67.1006   92.2347   12.4479 N.ar    1  UNL1       -0.3245
     20 C          65.7019   92.0489   11.9389 C.ar    1  UNL1        0.2579
     21 O          65.4110   92.1957   10.4747 O.2     1  UNL1       -0.2674
     22 C          64.5942   91.7163   12.8940 C.ar    1  UNL1        0.0875
     23 H          67.8277   92.4530   11.8210 H       1  UNL1        0.1686
     24 C          63.9555   91.4810   16.7826 C.3     1  UNL1        0.2525
     25 O          63.7775   91.2369   15.3134 O.3     1  UNL1       -0.4715
     26 C          63.0535   83.7397   12.2028 C.3     1  UNL1        0.1431
     27 C          62.9857   83.5775   13.6925 C.3     1  UNL1        0.0906
     28 C          61.9217   83.7670   14.7327 C.3     1  UNL1        0.1474
     29 O          62.8897   83.3480   15.7992 O.3     1  UNL1       -0.3534
     30 C          63.9537   83.1584   14.7590 C.3     1  UNL1        0.1474
     31 O          63.4586   82.5815   11.3399 O.3     1  UNL1       -0.3490
     32 C          63.0305   81.1904   11.7024 C.3     1  UNL1        0.1745
@<TRIPOS>BOND
     1    24    25    1
     2    25    15    1
     3    15    16   ar
     4    16    17   ar
     5    17    18    1
     6    17    19   ar
     7    19    20   ar
     8    20    21    2
     9    20    22   ar
    10    22    14    1
    11    14     1    1
    12     1     2    1
    13     2     3    1
    14     3     4    1
    15     4     5   ar
    16     5     6    1
    17     5     7   ar
    18     7     8   ar
    19     8    26    1
    20    26    31    1
    21    31    32    1
    22    26    27    1
    23    27    28    1
    24    28    29    1
    25    29    30    1
    26     8     9   ar
    27     9    10    1
    28     9    11   ar
    29    11    12    1
    30    12    13    2
    31    22    15   ar
    32    12     1   am
    33    11     4   ar
    34    30    27    1
    35    19    23    1
