@<TRIPOS>MOLECULE
*****
 50 56 0 0 0
SMALL
GASTEIGER

@<TRIPOS>ATOM
      1 C          60.6741   88.0592    8.9879 C.3     1  UNL1        0.1543
      2 N          60.7473   88.9887    7.8129 N.am    1  UNL1       -0.2822
      3 C          59.4898   89.4191    7.1176 C.2     1  UNL1        0.3043
      4 O          58.1591   88.9199    7.5972 O.2     1  UNL1       -0.2526
      5 N          59.5630   90.3486    5.9426 N.am    1  UNL1       -0.2641
      6 C          58.3055   90.7789    5.2473 C.3     1  UNL1        0.0966
      7 C          58.3787   91.7085    4.0723 C.3     1  UNL1        0.0415
      8 C          59.7094   92.2077    3.5927 C.3     1  UNL1        0.0806
      9 C          60.9669   91.7774    4.2880 C.3     1  UNL1        0.0415
     10 C          60.8937   90.8478    5.4630 C.3     1  UNL1        0.0966
     11 H          61.6207   89.3164    7.4981 H       1  UNL1        0.1514
     12 N          59.7826   93.1372    2.4177 N.am    1  UNL1       -0.2613
     13 C          59.8032   92.5838    1.0237 C.3     1  UNL1        0.1228
     14 C          59.8764   93.5134   -0.1513 C.ar    1  UNL1        0.0112
     15 C          59.8970   92.9600   -1.5453 C.ar    1  UNL1       -0.0014
     16 C          59.9702   93.8896   -2.7203 C.ar    1  UNL1       -0.0002
     17 C          60.0228   95.3726   -2.5012 C.ar    1  UNL1        0.0013
     18 C          60.0021   95.9260   -1.1072 C.ar    1  UNL1        0.0144
     19 C          59.9290   94.9964    0.0678 C.ar    1  UNL1        0.0492
     20 N          59.9083   95.5498    1.4618 N.am    1  UNL1       -0.2684
     21 C          59.8351   94.6203    2.6368 C.2     1  UNL1        0.3079
     22 O          59.8145   95.1737    4.0308 O.2     1  UNL1       -0.2522
     23 H          59.9428   96.5232    1.6056 H       1  UNL1        0.1564
     24 C          60.4650   88.6093   10.3676 C.2     1  UNL1        0.2439
     25 O          59.1829   88.3371   11.0972 O.2     1  UNL1       -0.2731
     26 N          61.5378   89.4317   11.0177 N.am    1  UNL1       -0.2781
     27 C          61.3286   89.9818   12.3974 C.3     1  UNL1        0.0948
     28 C          62.4014   90.8042   13.0476 C.3     1  UNL1        0.0375
     29 C          63.6835   91.0764   12.3180 C.3     1  UNL1        0.0609
     30 C          63.8927   90.5263   10.9383 C.3     1  UNL1        0.0375
     31 C          62.8198   89.7039   10.2882 C.3     1  UNL1        0.0948
     32 N          64.7564   91.8988   12.9681 N.3     1  UNL1       -0.2738
     33 C          65.4450   92.9820   12.1920 C.3     1  UNL1        0.0720
     34 C          66.5178   93.8044   12.8421 C.3     1  UNL1        0.0174
     35 C          66.9021   93.5435   14.2685 C.3     1  UNL1        0.0029
     36 C          66.2135   92.4602   15.0446 C.3     1  UNL1        0.0174
     37 C          65.1406   91.6379   14.3944 C.3     1  UNL1        0.0720
     38 C          60.8101   86.5794    8.7832 C.3     1  UNL1        0.0553
     39 C          62.8170   85.3753   11.9883 C.2     1  UNL1       -0.0170
     40 C          61.9068   86.1745   11.1034 C.2     1  UNL1       -0.0105
     41 C          61.7202   85.7803    9.6681 C.2     1  UNL1       -0.0208
     42 C          62.4438   84.5871    9.1179 C.2     1  UNL1       -0.0046
     43 C          63.3539   83.7880   10.0028 C.2     1  UNL1        0.0261
     44 C          64.1933   82.5723    9.7431 C.2     1  UNL1        0.1197
     45 N          64.8986   82.2150   11.0178 N.2     1  UNL1       -0.1508
     46 N          64.4952   83.2100   12.0653 N.2     1  UNL1       -0.1677
     47 C          63.5405   84.1822   11.4380 C.3     1  UNL1        0.1672
     48 C          62.3982   84.9371   14.5147 C.3     1  UNL1        0.0044
     49 C          63.0036   85.7694   13.4235 C.3     1  UNL1        0.0205
     50 C          63.7957   86.9960   13.7676 C.3     1  UNL1        0.0044
@<TRIPOS>BOND
     1    48    49    1
     2    49    50    1
     3    49    39    1
     4    39    40    2
     5    40    41    1
     6    41    38    1
     7    38     1    1
     8     1     2    1
     9     2     3   am
    10     3     4    2
    11     3     5   am
    12     5     6    1
    13     6     7    1
    14     7     8    1
    15     8    12    1
    16    12    13    1
    17    13    14    1
    18    14    15   ar
    19    15    16   ar
    20    16    17   ar
    21    17    18   ar
    22    18    19   ar
    23    19    20    1
    24    20    21   am
    25    21    22    2
    26     8     9    1
    27     9    10    1
    28     1    24    1
    29    24    25    2
    30    24    26   am
    31    26    27    1
    32    27    28    1
    33    28    29    1
    34    29    32    1
    35    32    33    1
    36    33    34    1
    37    34    35    1
    38    35    36    1
    39    36    37    1
    40    29    30    1
    41    30    31    1
    42    41    42    2
    43    42    43    1
    44    43    44    2
    45    44    45    1
    46    45    46    2
    47    46    47    1
    48    47    39    1
    49    10     5    1
    50    31    26    1
    51    47    43    1
    52    21    12   am
    53    37    32    1
    54    19    14   ar
    55     2    11    1
    56    20    23    1
@<TRIPOS>MOLECULE
*****
 50 56 0 0 0
SMALL
GASTEIGER

@<TRIPOS>ATOM
      1 C          59.3630   89.3957    7.3656 C.3     1  UNL1        0.1543
      2 N          60.5107   89.9837    8.1317 N.am    1  UNL1       -0.2822
      3 C          60.5610   89.8531    9.6252 C.2     1  UNL1        0.3043
      4 O          59.4635   89.1346   10.3526 O.2     1  UNL1       -0.2526
      5 N          61.7087   90.4411   10.3912 N.am    1  UNL1       -0.2641
      6 C          61.7590   90.3106   11.8847 C.3     1  UNL1        0.0966
      7 C          62.9068   90.8986   12.6508 C.3     1  UNL1        0.0415
      8 C          64.0043   91.6172   11.9234 C.3     1  UNL1        0.0806
      9 C          63.9540   91.7478   10.4299 C.3     1  UNL1        0.0415
     10 C          62.8063   91.1598    9.6638 C.3     1  UNL1        0.0966
     11 H          61.2311   90.4553    7.6543 H       1  UNL1        0.1514
     12 N          65.1520   92.2052   12.6894 N.am    1  UNL1       -0.2613
     13 C          65.6740   91.5083   13.9109 C.3     1  UNL1        0.1228
     14 C          66.8217   92.0964   14.6770 C.ar    1  UNL1        0.0112
     15 C          67.3437   91.3995   15.8984 C.ar    1  UNL1       -0.0014
     16 C          68.4914   91.9875   16.6645 C.ar    1  UNL1       -0.0002
     17 C          69.1173   93.2725   16.2091 C.ar    1  UNL1        0.0013
     18 C          68.5953   93.9694   14.9877 C.ar    1  UNL1        0.0144
     19 C          67.4475   93.3813   14.2216 C.ar    1  UNL1        0.0492
     20 N          66.9255   94.0782   13.0002 N.am    1  UNL1       -0.2684
     21 C          65.7778   93.4902   12.2341 C.2     1  UNL1        0.3079
     22 O          65.2558   94.1871   11.0127 O.2     1  UNL1       -0.2522
     23 H          67.3363   94.9215   12.7013 H       1  UNL1        0.1564
     24 C          58.6140   90.2360    6.3742 C.2     1  UNL1        0.2439
     25 O          57.1201   90.3423    6.4582 O.2     1  UNL1       -0.2731
     26 N          59.3589   90.9700    5.2989 N.am    1  UNL1       -0.2781
     27 C          58.6099   91.8103    4.3075 C.3     1  UNL1        0.0948
     28 C          59.3547   92.5443    3.2322 C.3     1  UNL1        0.0375
     29 C          60.8487   92.4380    3.1482 C.3     1  UNL1        0.0609
     30 C          61.5976   91.5977    4.1396 C.3     1  UNL1        0.0375
     31 C          60.8527   90.8637    5.2150 C.3     1  UNL1        0.0948
     32 N          61.5935   93.1721    2.0729 N.3     1  UNL1       -0.2738
     33 C          63.0249   92.8289    1.7839 C.3     1  UNL1        0.0720
     34 C          63.7697   93.5629    0.7086 C.3     1  UNL1        0.0174
     35 C          63.0832   94.6401   -0.0779 C.3     1  UNL1        0.0029
     36 C          61.6519   94.9833    0.2111 C.3     1  UNL1        0.0174
     37 C          60.9070   94.2492    1.2865 C.3     1  UNL1        0.0720
     38 C          58.9642   87.9673    7.5909 C.3     1  UNL1        0.0553
     39 C          61.6224   85.0787    7.0079 C.2     1  UNL1       -0.0170
     40 C          60.5738   86.1161    6.7353 C.2     1  UNL1       -0.0105
     41 C          60.0128   86.9299    7.8635 C.2     1  UNL1       -0.0208
     42 C          60.5003   86.7063    9.2644 C.2     1  UNL1       -0.0046
     43 C          61.5489   85.6690    9.5370 C.2     1  UNL1        0.0261
     44 C          62.2190   85.2281   10.8045 C.2     1  UNL1        0.1197
     45 N          63.1942   84.1418   10.4597 N.2     1  UNL1       -0.1508
     46 N          63.1268   83.9113    8.9790 N.2     1  UNL1       -0.1677
     47 C          62.1099   84.8551    8.4088 C.3     1  UNL1        0.1672
     48 C          63.6484   84.3300    5.5640 C.3     1  UNL1        0.0044
     49 C          62.1835   84.2648    5.8797 C.3     1  UNL1        0.0205
     50 C          61.2795   83.3858    5.0672 C.3     1  UNL1        0.0044
@<TRIPOS>BOND
     1    48    49    1
     2    49    50    1
     3    49    39    1
     4    39    40    2
     5    40    41    1
     6    41    38    1
     7    38     1    1
     8     1     2    1
     9     2     3   am
    10     3     4    2
    11     3     5   am
    12     5     6    1
    13     6     7    1
    14     7     8    1
    15     8    12    1
    16    12    13    1
    17    13    14    1
    18    14    15   ar
    19    15    16   ar
    20    16    17   ar
    21    17    18   ar
    22    18    19   ar
    23    19    20    1
    24    20    21   am
    25    21    22    2
    26     8     9    1
    27     9    10    1
    28     1    24    1
    29    24    25    2
    30    24    26   am
    31    26    27    1
    32    27    28    1
    33    28    29    1
    34    29    32    1
    35    32    33    1
    36    33    34    1
    37    34    35    1
    38    35    36    1
    39    36    37    1
    40    29    30    1
    41    30    31    1
    42    41    42    2
    43    42    43    1
    44    43    44    2
    45    44    45    1
    46    45    46    2
    47    46    47    1
    48    47    39    1
    49    10     5    1
    50    31    26    1
    51    47    43    1
    52    21    12   am
    53    37    32    1
    54    19    14   ar
    55     2    11    1
    56    20    23    1
@<TRIPOS>MOLECULE
*****
 50 56 0 0 0
SMALL
GASTEIGER

@<TRIPOS>ATOM
      1 C          60.9229   88.1244    9.1648 C.3     1  UNL1        0.1543
      2 N          60.9265   89.0067    7.9518 N.am    1  UNL1       -0.2822
      3 C          59.6315   89.3886    7.2983 C.2     1  UNL1        0.3043
      4 O          58.3329   88.8883    7.8579 O.2     1  UNL1       -0.2526
      5 N          59.6351   90.2709    6.0852 N.am    1  UNL1       -0.2641
      6 C          58.3400   90.6528    5.4318 C.3     1  UNL1        0.0966
      7 C          58.3436   91.5351    4.2187 C.3     1  UNL1        0.0415
      8 C          59.6423   92.0354    3.6590 C.3     1  UNL1        0.0806
      9 C          60.9373   91.6535    4.3125 C.3     1  UNL1        0.0415
     10 C          60.9337   90.7712    5.5256 C.3     1  UNL1        0.0966
     11 H          61.7789   89.3351    7.5844 H       1  UNL1        0.1514
     12 N          59.6459   92.9177    2.4460 N.am    1  UNL1       -0.2613
     13 C          59.5253   92.3131    1.0785 C.3     1  UNL1        0.1228
     14 C          59.5289   93.1954   -0.1346 C.ar    1  UNL1        0.0112
     15 C          59.4083   92.5908   -1.5020 C.ar    1  UNL1       -0.0014
     16 C          59.4118   93.4731   -2.7151 C.ar    1  UNL1       -0.0002
     17 C          59.5360   94.9600   -2.5608 C.ar    1  UNL1        0.0013
     18 C          59.6566   95.5646   -1.1933 C.ar    1  UNL1        0.0144
     19 C          59.6530   94.6822    0.0198 C.ar    1  UNL1        0.0492
     20 N          59.7736   95.2868    1.3873 N.am    1  UNL1       -0.2684
     21 C          59.7700   94.4046    2.6003 C.2     1  UNL1        0.3079
     22 O          59.8906   95.0091    3.9678 O.2     1  UNL1       -0.2522
     23 H          59.8551   96.2627    1.4886 H       1  UNL1        0.1564
     24 C          60.6424   88.7098   10.5171 C.2     1  UNL1        0.2439
     25 O          59.3083   88.4908   11.1670 O.2     1  UNL1       -0.2731
     26 N          61.6959   89.5140   11.2195 N.am    1  UNL1       -0.2781
     27 C          61.4153   90.0994   12.5717 C.3     1  UNL1        0.0948
     28 C          62.4688   90.9036   13.2741 C.3     1  UNL1        0.0375
     29 C          63.8029   91.1225   12.6242 C.3     1  UNL1        0.0609
     30 C          64.0834   90.5372   11.2719 C.3     1  UNL1        0.0375
     31 C          63.0299   89.7329   10.5695 C.3     1  UNL1        0.0948
     32 N          64.8564   91.9268   13.3265 N.3     1  UNL1       -0.2738
     33 C          65.1881   91.6386   14.7607 C.3     1  UNL1        0.0720
     34 C          66.2416   92.4428   15.4631 C.3     1  UNL1        0.0174
     35 C          66.9634   93.5353   14.7312 C.3     1  UNL1        0.0029
     36 C          66.6317   93.8235   13.2970 C.3     1  UNL1        0.0174
     37 C          65.5781   93.0192   12.5947 C.3     1  UNL1        0.0720
     38 C          61.1999   86.6568    9.0256 C.3     1  UNL1        0.0553
     39 C          62.9625   83.7316   11.0472 C.2     1  UNL1       -0.0170
     40 C          62.2264   84.4620    9.9633 C.2     1  UNL1       -0.0105
     41 C          61.9360   85.9263   10.1094 C.2     1  UNL1       -0.0208
     42 C          62.3817   86.6603   11.3394 C.2     1  UNL1       -0.0046
     43 C          63.1177   85.9299   12.4232 C.2     1  UNL1        0.0261
     44 C          63.6769   86.3843   13.7388 C.2     1  UNL1        0.1197
     45 N          64.3129   85.2008   14.4058 N.2     1  UNL1       -0.1508
     46 N          64.1468   84.0150   13.5024 N.2     1  UNL1       -0.1677
     47 C          63.4082   84.4655   12.2771 C.3     1  UNL1        0.1672
     48 C          62.6145   81.2795   11.8320 C.3     1  UNL1        0.0044
     49 C          63.2529   82.2672   10.9011 C.3     1  UNL1        0.0205
     50 C          64.1819   81.7907    9.8240 C.3     1  UNL1        0.0044
@<TRIPOS>BOND
     1    48    49    1
     2    49    50    1
     3    49    39    1
     4    39    40    2
     5    40    41    1
     6    41    38    1
     7    38     1    1
     8     1     2    1
     9     2     3   am
    10     3     4    2
    11     3     5   am
    12     5     6    1
    13     6     7    1
    14     7     8    1
    15     8    12    1
    16    12    13    1
    17    13    14    1
    18    14    15   ar
    19    15    16   ar
    20    16    17   ar
    21    17    18   ar
    22    18    19   ar
    23    19    20    1
    24    20    21   am
    25    21    22    2
    26     8     9    1
    27     9    10    1
    28     1    24    1
    29    24    25    2
    30    24    26   am
    31    26    27    1
    32    27    28    1
    33    28    29    1
    34    29    32    1
    35    32    33    1
    36    33    34    1
    37    34    35    1
    38    35    36    1
    39    36    37    1
    40    29    30    1
    41    30    31    1
    42    41    42    2
    43    42    43    1
    44    43    44    2
    45    44    45    1
    46    45    46    2
    47    46    47    1
    48    47    39    1
    49    10     5    1
    50    31    26    1
    51    47    43    1
    52    21    12   am
    53    37    32    1
    54    19    14   ar
    55     2    11    1
    56    20    23    1
@<TRIPOS>MOLECULE
*****
 50 56 0 0 0
SMALL
GASTEIGER

@<TRIPOS>ATOM
      1 C          60.6721   93.7765    0.0474 C.3     1  UNL1        0.1543
      2 N          60.8251   93.0237    1.3358 N.am    1  UNL1       -0.2822
      3 C          59.6203   92.7270    2.1786 C.2     1  UNL1        0.3043
      4 O          58.2625   93.1830    1.7331 O.2     1  UNL1       -0.2526
      5 N          59.7732   91.9742    3.4670 N.am    1  UNL1       -0.2641
      6 C          58.5684   91.6775    4.3098 C.3     1  UNL1        0.0966
      7 C          58.7214   90.9247    5.5983 C.3     1  UNL1        0.0415
      8 C          60.0791   90.4687    6.0438 C.3     1  UNL1        0.0806
      9 C          61.2839   90.7655    5.2010 C.3     1  UNL1        0.0415
     10 C          61.1310   91.5182    3.9126 C.3     1  UNL1        0.0966
     11 H          61.7162   92.7244    1.6282 H       1  UNL1        0.1514
     12 N          60.2321   89.7160    7.3322 N.am    1  UNL1       -0.2613
     13 C          61.3061   90.1042    8.3047 C.3     1  UNL1        0.1228
     14 C          61.4591   89.3514    9.5931 C.ar    1  UNL1        0.0112
     15 C          62.5331   89.7395   10.5656 C.ar    1  UNL1       -0.0014
     16 C          62.6861   88.9868   11.8539 C.ar    1  UNL1       -0.0002
     17 C          61.7649   87.8458   12.1699 C.ar    1  UNL1        0.0013
     18 C          60.6908   87.4576   11.1974 C.ar    1  UNL1        0.0144
     19 C          60.5379   88.2105    9.9090 C.ar    1  UNL1        0.0492
     20 N          59.4639   87.8223    8.9365 N.am    1  UNL1       -0.2684
     21 C          59.3109   88.5750    7.6481 C.2     1  UNL1        0.3079
     22 O          58.2369   88.1869    6.6756 O.2     1  UNL1       -0.2522
     23 H          58.8593   87.0735    9.1438 H       1  UNL1        0.1564
     24 C          60.0221   95.1283    0.0412 C.2     1  UNL1        0.2439
     25 O          60.7083   96.2935    0.6905 O.2     1  UNL1       -0.2731
     26 N          58.6859   95.3150   -0.6143 N.am    1  UNL1       -0.2781
     27 C          58.0358   96.6668   -0.6205 C.3     1  UNL1        0.0948
     28 C          56.6996   96.8534   -1.2759 C.3     1  UNL1        0.0375
     29 C          56.0134   95.6882   -1.9252 C.3     1  UNL1        0.0609
     30 C          56.6634   94.3364   -1.9190 C.3     1  UNL1        0.0375
     31 C          57.9997   94.1498   -1.2635 C.3     1  UNL1        0.0948
     32 N          54.6772   95.8749   -2.5806 N.3     1  UNL1       -0.2738
     33 C          53.4285   95.8814   -1.7495 C.3     1  UNL1        0.0720
     34 C          52.0923   96.0680   -2.4050 C.3     1  UNL1        0.0174
     35 C          52.0047   96.2483   -3.8916 C.3     1  UNL1        0.0029
     36 C          53.2534   96.2418   -4.7227 C.3     1  UNL1        0.0174
     37 C          54.5897   96.0551   -4.0672 C.3     1  UNL1        0.0720
     38 C          61.1692   93.1774   -1.2348 C.3     1  UNL1        0.0553
     39 C          63.6224   94.1635   -4.1945 C.2     1  UNL1       -0.0170
     40 C          62.5155   93.4952   -3.4340 C.2     1  UNL1       -0.0105
     41 C          62.2761   93.8456   -1.9953 C.2     1  UNL1       -0.0208
     42 C          63.1435   94.8643   -1.3171 C.2     1  UNL1       -0.0046
     43 C          64.2504   95.5325   -2.0776 C.2     1  UNL1        0.0261
     44 C          65.2604   96.5670   -1.6782 C.2     1  UNL1        0.1197
     45 N          66.1242   96.8560   -2.8700 N.2     1  UNL1       -0.1508
     46 N          65.6479   96.0000   -4.0060 N.2     1  UNL1       -0.1677
     47 C          64.4898   95.1821   -3.5163 C.3     1  UNL1        0.1672
     48 C          64.4493   92.4806   -5.9929 C.3     1  UNL1        0.0044
     49 C          63.8619   93.8130   -5.6332 C.3     1  UNL1        0.0205
     50 C          63.5138   94.7952   -6.7123 C.3     1  UNL1        0.0044
@<TRIPOS>BOND
     1    48    49    1
     2    49    50    1
     3    49    39    1
     4    39    40    2
     5    40    41    1
     6    41    38    1
     7    38     1    1
     8     1     2    1
     9     2     3   am
    10     3     4    2
    11     3     5   am
    12     5     6    1
    13     6     7    1
    14     7     8    1
    15     8    12    1
    16    12    13    1
    17    13    14    1
    18    14    15   ar
    19    15    16   ar
    20    16    17   ar
    21    17    18   ar
    22    18    19   ar
    23    19    20    1
    24    20    21   am
    25    21    22    2
    26     8     9    1
    27     9    10    1
    28     1    24    1
    29    24    25    2
    30    24    26   am
    31    26    27    1
    32    27    28    1
    33    28    29    1
    34    29    32    1
    35    32    33    1
    36    33    34    1
    37    34    35    1
    38    35    36    1
    39    36    37    1
    40    29    30    1
    41    30    31    1
    42    41    42    2
    43    42    43    1
    44    43    44    2
    45    44    45    1
    46    45    46    2
    47    46    47    1
    48    47    39    1
    49    10     5    1
    50    31    26    1
    51    47    43    1
    52    21    12   am
    53    37    32    1
    54    19    14   ar
    55     2    11    1
    56    20    23    1
@<TRIPOS>MOLECULE
*****
 50 56 0 0 0
SMALL
GASTEIGER

@<TRIPOS>ATOM
      1 C          59.3502   89.3142    7.3858 C.3     1  UNL1        0.1543
      2 N          60.4894   89.9238    8.1478 N.am    1  UNL1       -0.2822
      3 C          60.5477   89.7936    9.6410 C.2     1  UNL1        0.3043
      4 O          59.4669   89.0540   10.3722 O.2     1  UNL1       -0.2526
      5 N          61.6869   90.4032   10.4030 N.am    1  UNL1       -0.2641
      6 C          61.7453   90.2731   11.8962 C.3     1  UNL1        0.0966
      7 C          62.8845   90.8826   12.6582 C.3     1  UNL1        0.0415
      8 C          63.9653   91.6223   11.9270 C.3     1  UNL1        0.0806
      9 C          63.9070   91.7524   10.4338 C.3     1  UNL1        0.0415
     10 C          62.7678   91.1429    9.6718 C.3     1  UNL1        0.0966
     11 H          61.1988   90.4093    7.6679 H       1  UNL1        0.1514
     12 N          65.1045   92.2319   12.6891 N.am    1  UNL1       -0.2613
     13 C          65.6507   91.5397   13.9026 C.3     1  UNL1        0.1228
     14 C          66.7899   92.1493   14.6646 C.ar    1  UNL1        0.0112
     15 C          67.3360   91.4572   15.8781 C.ar    1  UNL1       -0.0014
     16 C          68.4752   92.0667   16.6401 C.ar    1  UNL1       -0.0002
     17 C          69.0683   93.3685   16.1886 C.ar    1  UNL1        0.0013
     18 C          68.5221   94.0606   14.9751 C.ar    1  UNL1        0.0144
     19 C          67.3829   93.4510   14.2131 C.ar    1  UNL1        0.0492
     20 N          66.8367   94.1431   12.9996 N.am    1  UNL1       -0.2684
     21 C          65.6976   93.5336   12.2375 C.2     1  UNL1        0.3079
     22 O          65.1514   94.2257   11.0240 O.2     1  UNL1       -0.2522
     23 H          67.2260   94.9975   12.7032 H       1  UNL1        0.1564
     24 C          58.5444   90.1557    6.4410 C.2     1  UNL1        0.2439
     25 O          57.0524   90.2216    6.5815 O.2     1  UNL1       -0.2731
     26 N          59.2305   90.9312    5.3558 N.am    1  UNL1       -0.2781
     27 C          58.4247   91.7726    4.4109 C.3     1  UNL1        0.0948
     28 C          59.1109   92.5481    3.3257 C.3     1  UNL1        0.0375
     29 C          60.6029   92.4822    3.1852 C.3     1  UNL1        0.0609
     30 C          61.4087   91.6408    4.1301 C.3     1  UNL1        0.0375
     31 C          60.7225   90.8652    5.2153 C.3     1  UNL1        0.0948
     32 N          61.2890   93.2577    2.1000 N.3     1  UNL1       -0.2738
     33 C          60.5329   94.2993    1.3297 C.3     1  UNL1        0.0720
     34 C          61.2191   95.0748    0.2444 C.3     1  UNL1        0.0174
     35 C          62.6614   94.8087   -0.0705 C.3     1  UNL1        0.0029
     36 C          63.4174   93.7671    0.6998 C.3     1  UNL1        0.0174
     37 C          62.7312   92.9916    1.7851 C.3     1  UNL1        0.0720
     38 C          59.0168   87.8632    7.5686 C.3     1  UNL1        0.0553
     39 C          61.6896   85.7389    9.5919 C.2     1  UNL1       -0.0170
     40 C          60.6023   86.7253    9.2836 C.2     1  UNL1       -0.0105
     41 C          60.1040   86.8769    7.8769 C.2     1  UNL1       -0.0208
     42 C          60.6929   86.0421    6.7786 C.2     1  UNL1       -0.0046
     43 C          61.7801   85.0558    7.0869 C.2     1  UNL1        0.0261
     44 C          62.5465   84.1027    6.2184 C.2     1  UNL1        0.1197
     45 N          63.5185   83.3620    7.0883 N.2     1  UNL1       -0.1508
     46 N          63.3528   83.8574    8.4944 N.2     1  UNL1       -0.1677
     47 C          62.2785   84.9042    8.4936 C.3     1  UNL1        0.1672
     48 C          62.3385   84.2205   11.5977 C.3     1  UNL1        0.0044
     49 C          62.1879   85.5873   10.9986 C.3     1  UNL1        0.0205
     50 C          62.5356   86.8027   11.8061 C.3     1  UNL1        0.0044
@<TRIPOS>BOND
     1    48    49    1
     2    49    50    1
     3    49    39    1
     4    39    40    2
     5    40    41    1
     6    41    38    1
     7    38     1    1
     8     1     2    1
     9     2     3   am
    10     3     4    2
    11     3     5   am
    12     5     6    1
    13     6     7    1
    14     7     8    1
    15     8    12    1
    16    12    13    1
    17    13    14    1
    18    14    15   ar
    19    15    16   ar
    20    16    17   ar
    21    17    18   ar
    22    18    19   ar
    23    19    20    1
    24    20    21   am
    25    21    22    2
    26     8     9    1
    27     9    10    1
    28     1    24    1
    29    24    25    2
    30    24    26   am
    31    26    27    1
    32    27    28    1
    33    28    29    1
    34    29    32    1
    35    32    33    1
    36    33    34    1
    37    34    35    1
    38    35    36    1
    39    36    37    1
    40    29    30    1
    41    30    31    1
    42    41    42    2
    43    42    43    1
    44    43    44    2
    45    44    45    1
    46    45    46    2
    47    46    47    1
    48    47    39    1
    49    10     5    1
    50    31    26    1
    51    47    43    1
    52    21    12   am
    53    37    32    1
    54    19    14   ar
    55     2    11    1
    56    20    23    1
