@<TRIPOS>MOLECULE
*****
 18 20 0 0 0
SMALL
GASTEIGER

@<TRIPOS>ATOM
      1 C          61.3637   87.4731    9.2886 C.3     1  UNL1        0.0268
      2 C          62.0782   88.1307   10.4318 C.2     1  UNL1       -0.0366
      3 C          62.3061   89.6038   10.5989 C.2     1  UNL1        0.0335
      4 C          63.0591   89.8142   11.8791 C.2     1  UNL1        0.1908
      5 O          63.4975   91.1357   12.4371 O.2     1  UNL1       -0.2869
      6 C          63.2966   88.4711   12.5032 C.2     1  UNL1        0.0127
      7 C          64.0238   88.2800   13.8010 C.2     1  UNL1       -0.0406
      8 C          64.5154   89.5333   14.4624 C.3     1  UNL1        0.0263
      9 C          64.3245   87.0011   14.5252 C.3     1  UNL1        0.0698
     10 C          63.9722   85.5976   14.1301 C.3     1  UNL1        0.1914
     11 O          64.3335   84.3935   14.9483 O.3     1  UNL1       -0.4449
     12 C          63.8169   83.1780   14.2374 C.2     1  UNL1        0.3369
     13 O          63.9563   81.7587   14.7024 O.2     1  UNL1       -0.2453
     14 C          63.1362   83.6309   12.9798 C.2     1  UNL1        0.0492
     15 C          62.4755   82.7440   11.9664 C.3     1  UNL1        0.0373
     16 C          63.2322   85.1263   12.9135 C.2     1  UNL1       -0.0017
     17 C          62.6618   85.9420   11.7913 C.3     1  UNL1        0.0339
     18 C          62.6904   87.4306   11.6087 C.3     1  UNL1        0.0473
@<TRIPOS>BOND
     1     1     2    1
     2     2     3    2
     3     3     4    1
     4     4     5    2
     5     4     6    1
     6     6     7    2
     7     7     8    1
     8     7     9    1
     9    10     9    1
    10    10    11    1
    11    11    12    1
    12    12    13    2
    13    12    14    1
    14    14    15    1
    15    14    16    2
    16    16    17    1
    17    18    17    1
    18    18     2    1
    19    18     6    1
    20    16    10    1
@<TRIPOS>MOLECULE
*****
 18 20 0 0 0
SMALL
GASTEIGER

@<TRIPOS>ATOM
      1 C          60.5907   86.3706    8.7328 C.3     1  UNL1        0.0268
      2 C          61.2972   87.3023    9.6723 C.2     1  UNL1       -0.0366
      3 C          61.3728   88.7948    9.5429 C.2     1  UNL1        0.0335
      4 C          62.1745   89.3201   10.6968 C.2     1  UNL1        0.1908
      5 O          62.4993   90.7604   10.9616 O.2     1  UNL1       -0.2869
      6 C          62.5945   88.1522   11.5392 C.2     1  UNL1        0.0127
      7 C          63.4154   88.2865   12.7873 C.2     1  UNL1       -0.0406
      8 C          63.8066   89.6853   13.1618 C.3     1  UNL1        0.0263
      9 C          63.8970   87.2068   13.7107 C.3     1  UNL1        0.0698
     10 C          63.6766   85.7263   13.6138 C.3     1  UNL1        0.1914
     11 O          64.2159   84.7435   14.6104 O.3     1  UNL1       -0.4449
     12 C          63.7927   83.3697   14.1824 C.2     1  UNL1        0.3369
     13 O          64.1140   82.0873   14.8911 O.2     1  UNL1       -0.2453
     14 C          62.9919   83.5033   12.9212 C.2     1  UNL1        0.0492
     15 C          62.3716   82.3780   12.1472 C.3     1  UNL1        0.0373
     16 C          62.9201   84.9597   12.5698 C.2     1  UNL1       -0.0017
     17 C          62.1972   85.4844   11.3647 C.3     1  UNL1        0.0339
     18 C          62.0523   86.9052   10.9060 C.3     1  UNL1        0.0473
@<TRIPOS>BOND
     1     1     2    1
     2     2     3    2
     3     3     4    1
     4     4     5    2
     5     4     6    1
     6     6     7    2
     7     7     8    1
     8     7     9    1
     9    10     9    1
    10    10    11    1
    11    11    12    1
    12    12    13    2
    13    12    14    1
    14    14    15    1
    15    14    16    2
    16    16    17    1
    17    18    17    1
    18    18     2    1
    19    18     6    1
    20    16    10    1
@<TRIPOS>MOLECULE
*****
 18 20 0 0 0
SMALL
GASTEIGER

@<TRIPOS>ATOM
      1 C          63.6734   90.8603   12.5016 C.3     1  UNL1        0.0268
      2 C          62.8782   89.9838   11.5800 C.2     1  UNL1       -0.0366
      3 C          62.0916   90.4419   10.3879 C.2     1  UNL1        0.0335
      4 C          61.4572   89.2364    9.7598 C.2     1  UNL1        0.1908
      5 O          60.5820   89.2346    8.5417 O.2     1  UNL1       -0.2869
      6 C          61.8518   88.0332   10.5639 C.2     1  UNL1        0.0127
      7 C          61.4056   86.6388   10.2377 C.2     1  UNL1       -0.0406
      8 C          60.5206   86.5034    9.0342 C.3     1  UNL1        0.0263
      9 C          61.7273   85.3618   10.9559 C.3     1  UNL1        0.0698
     10 C          62.5747   85.1638   12.1777 C.3     1  UNL1        0.1914
     11 O          62.8210   83.8234   12.8043 O.3     1  UNL1       -0.4449
     12 C          63.7082   84.0251   13.9967 C.2     1  UNL1        0.3369
     13 O          64.2060   82.9505   14.9172 O.2     1  UNL1       -0.2453
     14 C          64.0103   85.4902   14.1072 C.2     1  UNL1        0.0492
     15 C          64.8631   86.1379   15.1575 C.3     1  UNL1        0.0373
     16 C          63.3098   86.1940   12.9830 C.2     1  UNL1       -0.0017
     17 C          63.3789   87.6765   12.7654 C.3     1  UNL1        0.0339
     18 C          62.7300   88.4951   11.6888 C.3     1  UNL1        0.0473
@<TRIPOS>BOND
     1     1     2    1
     2     2     3    2
     3     3     4    1
     4     4     5    2
     5     4     6    1
     6     6     7    2
     7     7     8    1
     8     7     9    1
     9    10     9    1
    10    10    11    1
    11    11    12    1
    12    12    13    2
    13    12    14    1
    14    14    15    1
    15    14    16    2
    16    16    17    1
    17    18    17    1
    18    18     2    1
    19    18     6    1
    20    16    10    1
@<TRIPOS>MOLECULE
*****
 18 20 0 0 0
SMALL
GASTEIGER

@<TRIPOS>ATOM
      1 C          62.5984   82.7555   11.7803 C.3     1  UNL1        0.0268
      2 C          63.0504   84.0335   12.4226 C.2     1  UNL1       -0.0366
      3 C          63.9043   84.1494   13.6504 C.2     1  UNL1        0.0335
      4 C          64.1095   85.6075   13.9364 C.2     1  UNL1        0.1908
      5 O          64.9025   86.1798   15.0737 O.2     1  UNL1       -0.2869
      6 C          63.3825   86.3928   12.8853 C.2     1  UNL1        0.0127
      7 C          63.3592   87.8919   12.8423 C.2     1  UNL1       -0.0406
      8 C          64.1200   88.5863   13.9326 C.3     1  UNL1        0.0263
      9 C          62.6756   88.7887   11.8530 C.3     1  UNL1        0.0698
     10 C          61.8464   88.4076   10.6625 C.3     1  UNL1        0.1914
     11 O          61.2118   89.4085    9.7429 O.3     1  UNL1       -0.4449
     12 C          60.4693   88.6553    8.6794 C.2     1  UNL1        0.3369
     13 O          59.6881   89.2619    7.5516 O.2     1  UNL1       -0.2453
     14 C          60.6450   87.1889    8.9415 C.2     1  UNL1        0.0492
     15 C          60.0705   86.0716    8.1220 C.3     1  UNL1        0.0373
     16 C          61.4961   87.0358   10.1671 C.2     1  UNL1       -0.0017
     17 C          61.8884   85.7062   10.7400 C.3     1  UNL1        0.0339
     18 C          62.7279   85.4200   11.9497 C.3     1  UNL1        0.0473
@<TRIPOS>BOND
     1     1     2    1
     2     2     3    2
     3     3     4    1
     4     4     5    2
     5     4     6    1
     6     6     7    2
     7     7     8    1
     8     7     9    1
     9    10     9    1
    10    10    11    1
    11    11    12    1
    12    12    13    2
    13    12    14    1
    14    14    15    1
    15    14    16    2
    16    16    17    1
    17    18    17    1
    18    18     2    1
    19    18     6    1
    20    16    10    1
@<TRIPOS>MOLECULE
*****
 18 20 0 0 0
SMALL
GASTEIGER

@<TRIPOS>ATOM
      1 C          61.7339   85.9830    9.5783 C.3     1  UNL1        0.0268
      2 C          62.2914   85.4217   10.8527 C.2     1  UNL1       -0.0366
      3 C          62.3222   83.9726   11.2388 C.2     1  UNL1        0.0335
      4 C          62.9659   83.8662   12.5895 C.2     1  UNL1        0.1908
      5 O          63.2011   82.5989   13.3567 O.2     1  UNL1       -0.2869
      6 C          63.3330   85.2497   13.0382 C.2     1  UNL1        0.0127
      7 C          64.0005   85.5433   14.3489 C.2     1  UNL1       -0.0406
      8 C          64.2908   84.3519   15.2128 C.3     1  UNL1        0.0263
      9 C          64.4161   86.8709   14.9101 C.3     1  UNL1        0.0698
     10 C          64.2668   88.2326   14.2991 C.3     1  UNL1        0.1914
     11 O          64.7276   89.4936   14.9681 O.3     1  UNL1       -0.4449
     12 C          64.4106   90.6434   14.0586 C.2     1  UNL1        0.3369
     13 O          64.6996   92.0897   14.3321 O.2     1  UNL1       -0.2453
     14 C          63.7539   90.0931   12.8273 C.2     1  UNL1        0.0492
     15 C          63.2709   90.8924   11.6535 C.3     1  UNL1        0.0373
     16 C          63.6651   88.6032   12.9760 C.2     1  UNL1       -0.0017
     17 C          63.0640   87.7035   11.9371 C.3     1  UNL1        0.0339
     18 C          62.9162   86.2110   11.9648 C.3     1  UNL1        0.0473
@<TRIPOS>BOND
     1     1     2    1
     2     2     3    2
     3     3     4    1
     4     4     5    2
     5     4     6    1
     6     6     7    2
     7     7     8    1
     8     7     9    1
     9    10     9    1
    10    10    11    1
    11    11    12    1
    12    12    13    2
    13    12    14    1
    14    14    15    1
    15    14    16    2
    16    16    17    1
    17    18    17    1
    18    18     2    1
    19    18     6    1
    20    16    10    1
@<TRIPOS>MOLECULE
*****
 18 20 0 0 0
SMALL
GASTEIGER

@<TRIPOS>ATOM
      1 C          64.4978   89.0756   14.6052 C.3     1  UNL1        0.0268
      2 C          64.2464   87.6384   14.2572 C.2     1  UNL1       -0.0366
      3 C          64.7437   86.4465   15.0201 C.2     1  UNL1        0.0335
      4 C          64.2582   85.2121   14.3195 C.2     1  UNL1        0.1908
      5 O          64.5235   83.7972   14.7409 O.2     1  UNL1       -0.2869
      6 C          63.4608   85.6412   13.1237 C.2     1  UNL1        0.0127
      7 C          62.8118   84.6781   12.1745 C.2     1  UNL1       -0.0406
      8 C          63.0049   83.2242   12.4890 C.3     1  UNL1        0.0263
      9 C          61.9950   84.9766   10.9522 C.3     1  UNL1        0.0698
     10 C          61.6257   86.3119   10.3773 C.3     1  UNL1        0.1914
     11 O          60.7962   86.4775    9.1386 O.3     1  UNL1       -0.4449
     12 C          60.6397   87.9463    8.8783 C.2     1  UNL1        0.3369
     13 O          59.8833   88.5644    7.7400 O.2     1  UNL1       -0.2453
     14 C          61.3725   88.6887    9.9563 C.2     1  UNL1        0.0492
     15 C          61.4775   90.1794   10.0852 C.3     1  UNL1        0.0373
     16 C          61.9818   87.6785   10.8827 C.2     1  UNL1       -0.0017
     17 C          62.7953   88.0474   12.0878 C.3     1  UNL1        0.0339
     18 C          63.4535   87.1407   13.0852 C.3     1  UNL1        0.0473
@<TRIPOS>BOND
     1     1     2    1
     2     2     3    2
     3     3     4    1
     4     4     5    2
     5     4     6    1
     6     6     7    2
     7     7     8    1
     8     7     9    1
     9    10     9    1
    10    10    11    1
    11    11    12    1
    12    12    13    2
    13    12    14    1
    14    14    15    1
    15    14    16    2
    16    16    17    1
    17    18    17    1
    18    18     2    1
    19    18     6    1
    20    16    10    1
@<TRIPOS>MOLECULE
*****
 18 20 0 0 0
SMALL
GASTEIGER

@<TRIPOS>ATOM
      1 C          63.6427   90.8537   13.2346 C.3     1  UNL1        0.0268
      2 C          63.7645   89.3721   13.4342 C.2     1  UNL1       -0.0366
      3 C          64.5369   88.6898   14.5241 C.2     1  UNL1        0.0335
      4 C          64.3851   87.2086   14.3425 C.2     1  UNL1        0.1908
      5 O          64.9928   86.1470   15.2107 O.2     1  UNL1       -0.2869
      6 C          63.5187   86.9754   13.1404 C.2     1  UNL1        0.0127
      7 C          63.1431   85.6104   12.6448 C.2     1  UNL1       -0.0406
      8 C          63.6920   84.4581   13.4328 C.3     1  UNL1        0.0263
      9 C          62.2912   85.2453   11.4654 C.3     1  UNL1        0.0698
     10 C          61.6045   86.1551   10.4903 C.3     1  UNL1        0.1914
     11 O          60.7739   85.6611    9.3432 O.3     1  UNL1       -0.4449
     12 C          60.2561   86.8553    8.5977 C.2     1  UNL1        0.3369
     13 O          59.3813   86.8231    7.3797 O.2     1  UNL1       -0.2453
     14 C          60.7668   88.0874    9.2841 C.2     1  UNL1        0.0492
     15 C          60.4923   89.5036    8.8731 C.3     1  UNL1        0.0373
     16 C          61.6001   87.6546   10.4538 C.2     1  UNL1       -0.0017
     17 C          62.2813   88.6148   11.3834 C.3     1  UNL1        0.0339
     18 C          63.1352   88.3125   12.5791 C.3     1  UNL1        0.0473
@<TRIPOS>BOND
     1     1     2    1
     2     2     3    2
     3     3     4    1
     4     4     5    2
     5     4     6    1
     6     6     7    2
     7     7     8    1
     8     7     9    1
     9    10     9    1
    10    10    11    1
    11    11    12    1
    12    12    13    2
    13    12    14    1
    14    14    15    1
    15    14    16    2
    16    16    17    1
    17    18    17    1
    18    18     2    1
    19    18     6    1
    20    16    10    1
@<TRIPOS>MOLECULE
*****
 18 20 0 0 0
SMALL
GASTEIGER

@<TRIPOS>ATOM
      1 C          62.6808   84.4719   11.4546 C.3     1  UNL1        0.0268
      2 C          62.0915   85.6076   10.6717 C.2     1  UNL1       -0.0366
      3 C          61.2631   85.4845    9.4273 C.2     1  UNL1        0.0335
      4 C          60.8868   86.8667    8.9823 C.2     1  UNL1        0.1908
      5 O          60.0599   87.2110    7.7791 O.2     1  UNL1       -0.2869
      6 C          61.4825   87.8440    9.9517 C.2     1  UNL1        0.0127
      7 C          61.3189   89.3302    9.8325 C.2     1  UNL1       -0.0406
      8 C          60.5075   89.8040    8.6632 C.3     1  UNL1        0.0263
      9 C          61.8595   90.4055   10.7278 C.3     1  UNL1        0.0698
     10 C          62.6971   90.2600   11.9636 C.3     1  UNL1        0.1914
     11 O          63.1781   91.4245   12.7778 O.3     1  UNL1       -0.4449
     12 C          63.9793   90.8875   13.9265 C.2     1  UNL1        0.3369
     13 O          64.6488   91.7036   14.9923 O.2     1  UNL1       -0.2453
     14 C          63.9935   89.3912   13.8224 C.2     1  UNL1        0.0492
     15 C          64.6797   88.4482   14.7657 C.3     1  UNL1        0.0373
     16 C          63.2011   89.0034   12.6093 C.2     1  UNL1       -0.0017
     17 C          62.9919   87.5819   12.1786 C.3     1  UNL1        0.0339
     18 C          62.2271   87.0659   10.9959 C.3     1  UNL1        0.0473
@<TRIPOS>BOND
     1     1     2    1
     2     2     3    2
     3     3     4    1
     4     4     5    2
     5     4     6    1
     6     6     7    2
     7     7     8    1
     8     7     9    1
     9    10     9    1
    10    10    11    1
    11    11    12    1
    12    12    13    2
    13    12    14    1
    14    14    15    1
    15    14    16    2
    16    16    17    1
    17    18    17    1
    18    18     2    1
    19    18     6    1
    20    16    10    1
@<TRIPOS>MOLECULE
*****
 18 20 0 0 0
SMALL
GASTEIGER

@<TRIPOS>ATOM
      1 C          64.2499   86.4163   15.4156 C.3     1  UNL1        0.0268
      2 C          64.1693   85.3523   14.3614 C.2     1  UNL1       -0.0366
      3 C          64.6812   83.9478   14.4852 C.2     1  UNL1        0.0335
      4 C          64.3909   83.2334   13.1986 C.2     1  UNL1        0.1908
      5 O          64.7321   81.8066   12.8860 O.2     1  UNL1       -0.2869
      6 C          63.6995   84.1963   12.2796 C.2     1  UNL1        0.0127
      7 C          63.2513   83.8388   10.8935 C.2     1  UNL1       -0.0406
      8 C          63.5367   82.4315   10.4599 C.3     1  UNL1        0.0263
      9 C          62.5555   84.7025    9.8836 C.3     1  UNL1        0.0698
     10 C          62.1359   86.1371   10.0105 C.3     1  UNL1        0.1914
     11 O          61.4412   86.8946    8.9180 O.3     1  UNL1       -0.4449
     12 C          61.1846   88.2878    9.4107 C.2     1  UNL1        0.3369
     13 O          60.5103   89.3849    8.6415 O.2     1  UNL1       -0.2453
     14 C          61.7207   88.3914   10.8078 C.2     1  UNL1        0.0492
     15 C          61.6766   89.6103   11.6810 C.3     1  UNL1        0.0373
     16 C          62.3086   87.0622   11.1785 C.2     1  UNL1       -0.0017
     17 C          62.9435   86.7813   12.5082 C.3     1  UNL1        0.0339
     18 C          63.5625   85.5059   12.9982 C.3     1  UNL1        0.0473
@<TRIPOS>BOND
     1     1     2    1
     2     2     3    2
     3     3     4    1
     4     4     5    2
     5     4     6    1
     6     6     7    2
     7     7     8    1
     8     7     9    1
     9    10     9    1
    10    10    11    1
    11    11    12    1
    12    12    13    2
    13    12    14    1
    14    14    15    1
    15    14    16    2
    16    16    17    1
    17    18    17    1
    18    18     2    1
    19    18     6    1
    20    16    10    1
