@<TRIPOS>MOLECULE
*****
 33 35 0 0 0
SMALL
GASTEIGER

@<TRIPOS>ATOM
      1 C          62.5478   88.9372   11.5213 C.ar    1  UNL1        0.0543
      2 C          63.5184   89.4238   12.5561 C.ar    1  UNL1       -0.0163
      3 C          63.7455   88.6255   13.8056 C.3     1  UNL1        0.0310
      4 C          64.2621   90.7087   12.3416 C.ar    1  UNL1        0.0308
      5 C          65.2327   91.1953   13.3764 C.ar    1  UNL1        0.0058
      6 C          65.9764   92.4802   13.1618 C.ar    1  UNL1        0.0378
      7 C          65.7493   93.2785   11.9124 C.ar    1  UNL1        0.1531
      8 C          64.7786   92.7919   10.8775 C.ar    1  UNL1        0.0752
      9 C          64.0350   91.5070   11.0921 C.ar    1  UNL1        0.1514
     10 O          63.0643   91.0204   10.0572 O.2     1  UNL1       -0.4212
     11 C          62.3207   89.7355   10.2718 C.ar    1  UNL1        0.3417
     12 O          61.3500   89.2489    9.2369 O.2     1  UNL1       -0.2448
     13 C          61.8041   87.6523   11.7358 C.3     1  UNL1        0.0589
     14 C          63.4818   84.0562   11.7933 C.ar    1  UNL1        0.0655
     15 C          63.5766   83.7641   10.3250 C.ar    1  UNL1        0.0159
     16 C          63.0805   84.7682    9.3270 C.ar    1  UNL1        0.0010
     17 C          62.4897   86.0642    9.7973 C.ar    1  UNL1       -0.0038
     18 C          62.3949   86.3562   11.2655 C.ar    1  UNL1       -0.0163
     19 C          62.8909   85.3523   12.2635 C.ar    1  UNL1        0.0120
     20 N          63.9779   83.0522   12.7912 N.pl3   1  UNL1       -0.2054
     21 H          64.9346   82.8227   12.8246 H       1  UNL1        0.1748
     22 S          63.0161   82.3980   13.7383 S.O2    1  UNL1        0.1099
     23 O          63.8342   82.8777   14.9004 O.2     1  UNL1       -0.1381
     24 O          62.1981   81.9183   12.5762 O.2     1  UNL1       -0.1381
     25 C          60.9475   80.8821   14.1539 C.3     1  UNL1        0.1116
     26 N          62.0543   81.7437   14.6854 N.3     1  UNL1       -0.1652
     27 H          62.6086   81.1587   15.3105 H       1  UNL1        0.1502
     28 O          66.4930   94.5634   11.6978 O.3     1  UNL1       -0.4100
     29 C          66.9706   94.9333   10.3248 C.2     1  UNL1        0.4095
     30 O          68.1578   94.2353    9.7304 O.2     1  UNL1       -0.2258
     31 N          66.2609   96.0012    9.5462 N.am    1  UNL1       -0.2422
     32 C          66.7386   96.3710    8.1733 C.3     1  UNL1        0.1184
     33 C          65.0737   96.6991   10.1406 C.3     1  UNL1        0.1184
@<TRIPOS>BOND
     1    25    26    1
     2    26    22    1
     3    22    23    2
     4    22    24    2
     5    22    20    1
     6    20    14    1
     7    14    15   ar
     8    15    16   ar
     9    16    17   ar
    10    17    18   ar
    11    18    13    1
    12    13     1    1
    13     1     2   ar
    14     2     3    1
    15     2     4   ar
    16     4     5   ar
    17     5     6   ar
    18     6     7   ar
    19     7    28    1
    20    28    29    1
    21    29    30    2
    22    29    31   am
    23    31    32    1
    24    31    33    1
    25     7     8   ar
    26     8     9   ar
    27     9    10   ar
    28    10    11   ar
    29    11    12    2
    30    18    19   ar
    31    19    14   ar
    32    11     1   ar
    33     9     4   ar
    34    26    27    1
    35    20    21    1
@<TRIPOS>MOLECULE
*****
 33 35 0 0 0
SMALL
GASTEIGER

@<TRIPOS>ATOM
      1 C          62.9184   88.6791   12.2179 C.ar    1  UNL1        0.0543
      2 C          62.9778   89.7578   11.1774 C.ar    1  UNL1       -0.0163
      3 C          62.1226   89.6626    9.9487 C.3     1  UNL1        0.0310
      4 C          63.8924   90.9318   11.3655 C.ar    1  UNL1        0.0308
      5 C          63.9518   92.0105   10.3249 C.ar    1  UNL1        0.0058
      6 C          64.8664   93.1844   10.5131 C.ar    1  UNL1        0.0378
      7 C          65.7216   93.2796   11.7417 C.ar    1  UNL1        0.1531
      8 C          65.6622   92.2009   12.7822 C.ar    1  UNL1        0.0752
      9 C          64.7476   91.0270   12.5941 C.ar    1  UNL1        0.1514
     10 O          64.6882   89.9481   13.6347 O.2     1  UNL1       -0.4212
     11 C          63.7736   88.7742   13.4466 C.ar    1  UNL1        0.3417
     12 O          63.7141   87.6954   14.4871 O.2     1  UNL1       -0.2448
     13 C          62.0038   87.5051   12.0298 C.3     1  UNL1        0.0589
     14 C          63.5003   83.8432   11.7120 C.ar    1  UNL1        0.0655
     15 C          63.5749   83.6959   10.2211 C.ar    1  UNL1        0.0159
     16 C          63.1257   84.8183    9.3331 C.ar    1  UNL1        0.0010
     17 C          62.6020   86.0880    9.9360 C.ar    1  UNL1       -0.0038
     18 C          62.5275   86.2354   11.4269 C.ar    1  UNL1       -0.0163
     19 C          62.9766   85.1130   12.3149 C.ar    1  UNL1        0.0120
     20 N          63.9494   82.7209   12.6000 N.pl3   1  UNL1       -0.2054
     21 H          64.8628   82.3629   12.5171 H       1  UNL1        0.1748
     22 S          63.0070   82.1440   13.6143 S.O2    1  UNL1        0.1099
     23 O          62.1151   81.6593   12.5099 O.2     1  UNL1       -0.1381
     24 O          63.8988   82.6286   14.7187 O.2     1  UNL1       -0.1381
     25 C          60.8665   80.7841   14.1793 C.3     1  UNL1        0.1116
     26 N          62.0645   81.5670   14.6287 N.3     1  UNL1       -0.1652
     27 H          62.6150   80.9475   15.2233 H       1  UNL1        0.1502
     28 O          66.6362   94.4536   11.9298 O.3     1  UNL1       -0.4100
     29 C          66.5154   95.6497   11.0328 C.2     1  UNL1        0.4095
     30 O          65.7076   96.8359   11.4692 O.2     1  UNL1       -0.2258
     31 N          67.2024   95.6597    9.6994 N.am    1  UNL1       -0.2422
     32 C          67.0816   96.8558    8.8024 C.3     1  UNL1        0.1184
     33 C          68.0101   94.4735    9.2630 C.3     1  UNL1        0.1184
@<TRIPOS>BOND
     1    25    26    1
     2    26    22    1
     3    22    23    2
     4    22    24    2
     5    22    20    1
     6    20    14    1
     7    14    15   ar
     8    15    16   ar
     9    16    17   ar
    10    17    18   ar
    11    18    13    1
    12    13     1    1
    13     1     2   ar
    14     2     3    1
    15     2     4   ar
    16     4     5   ar
    17     5     6   ar
    18     6     7   ar
    19     7    28    1
    20    28    29    1
    21    29    30    2
    22    29    31   am
    23    31    32    1
    24    31    33    1
    25     7     8   ar
    26     8     9   ar
    27     9    10   ar
    28    10    11   ar
    29    11    12    2
    30    18    19   ar
    31    19    14   ar
    32    11     1   ar
    33     9     4   ar
    34    26    27    1
    35    20    21    1
@<TRIPOS>MOLECULE
*****
 33 35 0 0 0
SMALL
GASTEIGER

@<TRIPOS>ATOM
      1 C          62.0073   87.4006   10.9246 C.ar    1  UNL1        0.0543
      2 C          62.8462   87.5142   12.1628 C.ar    1  UNL1       -0.0163
      3 C          63.1109   86.3004   13.0034 C.3     1  UNL1        0.0310
      4 C          63.4204   88.8417   12.5606 C.ar    1  UNL1        0.0308
      5 C          64.2592   88.9553   13.7988 C.ar    1  UNL1        0.0058
      6 C          64.8334   90.2828   14.1965 C.ar    1  UNL1        0.0378
      7 C          64.5686   91.4966   13.3560 C.ar    1  UNL1        0.1531
      8 C          63.7297   91.3830   12.1177 C.ar    1  UNL1        0.0752
      9 C          63.1556   90.0555   11.7200 C.ar    1  UNL1        0.1514
     10 O          62.3167   89.9419   10.4817 O.2     1  UNL1       -0.4212
     11 C          61.7426   88.6144   10.0840 C.ar    1  UNL1        0.3417
     12 O          60.9036   88.5007    8.8457 O.2     1  UNL1       -0.2448
     13 C          61.4331   86.0731   10.5268 C.3     1  UNL1        0.0589
     14 C          63.1317   82.6515   11.6028 C.ar    1  UNL1        0.0655
     15 C          64.0584   82.4192   10.4464 C.ar    1  UNL1        0.0159
     16 C          64.1101   83.4048    9.3168 C.ar    1  UNL1        0.0010
     17 C          63.2350   84.6228    9.3436 C.ar    1  UNL1       -0.0038
     18 C          62.3082   84.8551   10.5000 C.ar    1  UNL1       -0.0163
     19 C          62.2566   83.8696   11.6295 C.ar    1  UNL1        0.0120
     20 N          63.0801   81.6660   12.7323 N.pl3   1  UNL1       -0.2054
     21 H          63.1510   80.7015   12.5477 H       1  UNL1        0.1748
     22 S          62.9203   82.1498   14.1431 S.O2    1  UNL1        0.1099
     23 O          64.2600   82.8200   14.0649 O.2     1  UNL1       -0.1381
     24 O          61.5807   81.4796   14.2213 O.2     1  UNL1       -0.1381
     25 C          62.3904   84.0629   15.8193 C.3     1  UNL1        0.1116
     26 N          62.7606   82.6337   15.5539 N.3     1  UNL1       -0.1652
     27 H          62.0362   82.0575   15.9826 H       1  UNL1        0.1502
     28 O          65.1428   92.8241   13.7537 O.3     1  UNL1       -0.4100
     29 C          66.6290   92.9972   13.8590 C.2     1  UNL1        0.4095
     30 O          67.4479   93.2178   12.6217 O.2     1  UNL1       -0.2258
     31 N          67.2964   92.9498   15.2015 N.am    1  UNL1       -0.2422
     32 C          68.7827   93.1229   15.3068 C.3     1  UNL1        0.1184
     33 C          66.4776   92.7293   16.4388 C.3     1  UNL1        0.1184
@<TRIPOS>BOND
     1    25    26    1
     2    26    22    1
     3    22    23    2
     4    22    24    2
     5    22    20    1
     6    20    14    1
     7    14    15   ar
     8    15    16   ar
     9    16    17   ar
    10    17    18   ar
    11    18    13    1
    12    13     1    1
    13     1     2   ar
    14     2     3    1
    15     2     4   ar
    16     4     5   ar
    17     5     6   ar
    18     6     7   ar
    19     7    28    1
    20    28    29    1
    21    29    30    2
    22    29    31   am
    23    31    32    1
    24    31    33    1
    25     7     8   ar
    26     8     9   ar
    27     9    10   ar
    28    10    11   ar
    29    11    12    2
    30    18    19   ar
    31    19    14   ar
    32    11     1   ar
    33     9     4   ar
    34    26    27    1
    35    20    21    1
@<TRIPOS>MOLECULE
*****
 33 35 0 0 0
SMALL
GASTEIGER

@<TRIPOS>ATOM
      1 C          63.0858   89.3422   12.2948 C.ar    1  UNL1        0.0543
      2 C          63.7559   88.7391   13.4936 C.ar    1  UNL1       -0.0163
      3 C          64.3861   89.6262   14.5260 C.3     1  UNL1        0.0310
      4 C          63.7958   87.2488   13.6601 C.ar    1  UNL1        0.0308
      5 C          64.4659   86.6458   14.8589 C.ar    1  UNL1        0.0058
      6 C          64.5058   85.1556   15.0253 C.ar    1  UNL1        0.0378
      7 C          63.8755   84.2685   13.9929 C.ar    1  UNL1        0.1531
      8 C          63.2054   84.8716   12.7941 C.ar    1  UNL1        0.0752
      9 C          63.1655   86.3617   12.6277 C.ar    1  UNL1        0.1514
     10 O          62.4954   86.9649   11.4288 O.2     1  UNL1       -0.4212
     11 C          62.4555   88.4551   11.2624 C.ar    1  UNL1        0.3417
     12 O          61.7853   89.0582   10.0635 O.2     1  UNL1       -0.2448
     13 C          63.0459   90.8324   12.1283 C.3     1  UNL1        0.0589
     14 C          66.5741   92.6092   12.5081 C.ar    1  UNL1        0.0655
     15 C          66.8053   93.0834   11.1040 C.ar    1  UNL1        0.0159
     16 C          65.7833   92.8073   10.0412 C.ar    1  UNL1        0.0010
     17 C          64.5302   92.0570   10.3827 C.ar    1  UNL1       -0.0038
     18 C          64.2990   91.5827   11.7869 C.ar    1  UNL1       -0.0163
     19 C          65.3209   91.8588   12.8496 C.ar    1  UNL1        0.0120
     20 N          67.5960   92.8853   13.5708 N.pl3   1  UNL1       -0.2054
     21 H          68.5425   93.0007   13.3256 H       1  UNL1        0.1748
     22 S          67.1759   92.9857   15.0073 S.O2    1  UNL1        0.1099
     23 O          67.9756   91.7576   15.3270 O.2     1  UNL1       -0.1381
     24 O          66.3762   94.2138   14.6876 O.2     1  UNL1       -0.1381
     25 C          65.4324   92.5298   16.8787 C.3     1  UNL1        0.1116
     26 N          66.7558   93.0861   16.4438 N.3     1  UNL1       -0.1652
     27 H          67.4706   92.6095   16.9936 H       1  UNL1        0.1502
     28 O          63.9154   82.7782   14.1594 O.3     1  UNL1       -0.4100
     29 C          63.8728   81.8874   12.9534 C.2     1  UNL1        0.4095
     30 O          64.9286   82.0073   11.8947 O.2     1  UNL1       -0.2258
     31 N          62.7742   80.8767   12.8059 N.am    1  UNL1       -0.2422
     32 C          62.7316   79.9859   11.5999 C.3     1  UNL1        0.1184
     33 C          61.7184   80.7568   13.8646 C.3     1  UNL1        0.1184
@<TRIPOS>BOND
     1    25    26    1
     2    26    22    1
     3    22    23    2
     4    22    24    2
     5    22    20    1
     6    20    14    1
     7    14    15   ar
     8    15    16   ar
     9    16    17   ar
    10    17    18   ar
    11    18    13    1
    12    13     1    1
    13     1     2   ar
    14     2     3    1
    15     2     4   ar
    16     4     5   ar
    17     5     6   ar
    18     6     7   ar
    19     7    28    1
    20    28    29    1
    21    29    30    2
    22    29    31   am
    23    31    32    1
    24    31    33    1
    25     7     8   ar
    26     8     9   ar
    27     9    10   ar
    28    10    11   ar
    29    11    12    2
    30    18    19   ar
    31    19    14   ar
    32    11     1   ar
    33     9     4   ar
    34    26    27    1
    35    20    21    1
@<TRIPOS>MOLECULE
*****
 33 35 0 0 0
SMALL
GASTEIGER

@<TRIPOS>ATOM
      1 C          63.1380   88.9444   12.8641 C.ar    1  UNL1        0.0543
      2 C          62.7033   87.9430   11.8354 C.ar    1  UNL1       -0.0163
      3 C          61.9629   88.3972   10.6125 C.3     1  UNL1        0.0310
      4 C          63.0089   86.4873   12.0297 C.ar    1  UNL1        0.0308
      5 C          62.5742   85.4859   11.0011 C.ar    1  UNL1        0.0058
      6 C          62.8798   84.0303   11.1953 C.ar    1  UNL1        0.0378
      7 C          63.6202   83.5762   12.4183 C.ar    1  UNL1        0.1531
      8 C          64.0550   84.5776   13.4469 C.ar    1  UNL1        0.0752
      9 C          63.7493   86.0331   13.2526 C.ar    1  UNL1        0.1514
     10 O          64.1841   87.0346   14.2813 O.2     1  UNL1       -0.4212
     11 C          63.8784   88.4902   14.0870 C.ar    1  UNL1        0.3417
     12 O          64.3131   89.4917   15.1157 O.2     1  UNL1       -0.2448
     13 C          62.8324   90.4001   12.6698 C.3     1  UNL1        0.0589
     14 C          65.9482   92.8444   12.4105 C.ar    1  UNL1        0.0655
     15 C          65.9526   93.1431   10.9406 C.ar    1  UNL1        0.0159
     16 C          64.9169   92.5274   10.0471 C.ar    1  UNL1        0.0010
     17 C          63.8768   91.6131   10.6235 C.ar    1  UNL1       -0.0038
     18 C          63.8724   91.3144   12.0934 C.ar    1  UNL1       -0.0163
     19 C          64.9080   91.9300   12.9870 C.ar    1  UNL1        0.0120
     20 N          66.9838   93.4600   13.3041 N.pl3   1  UNL1       -0.2054
     21 H          67.1832   94.4217   13.2367 H       1  UNL1        0.1748
     22 S          67.7156   92.6103   14.3002 S.O2    1  UNL1        0.1099
     23 O          68.4316   91.9145   13.1808 O.2     1  UNL1       -0.1381
     24 O          66.9996   93.3060   15.4197 O.2     1  UNL1       -0.1381
     25 C          69.1529   92.4019   16.4545 C.3     1  UNL1        0.1116
     26 N          68.4474   91.7605   15.2965 N.3     1  UNL1       -0.1652
     27 H          67.7642   91.1133   15.6897 H       1  UNL1        0.1502
     28 O          63.9259   82.1205   12.6125 O.3     1  UNL1       -0.4100
     29 C          62.8088   81.1399   12.8133 C.2     1  UNL1        0.4095
     30 O          62.6812   79.9521   11.9062 O.2     1  UNL1       -0.2258
     31 N          61.8191   81.3470   13.9214 N.am    1  UNL1       -0.2422
     32 C          60.7019   80.3664   14.1222 C.3     1  UNL1        0.1184
     33 C          61.9466   82.5348   14.8285 C.3     1  UNL1        0.1184
@<TRIPOS>BOND
     1    25    26    1
     2    26    22    1
     3    22    23    2
     4    22    24    2
     5    22    20    1
     6    20    14    1
     7    14    15   ar
     8    15    16   ar
     9    16    17   ar
    10    17    18   ar
    11    18    13    1
    12    13     1    1
    13     1     2   ar
    14     2     3    1
    15     2     4   ar
    16     4     5   ar
    17     5     6   ar
    18     6     7   ar
    19     7    28    1
    20    28    29    1
    21    29    30    2
    22    29    31   am
    23    31    32    1
    24    31    33    1
    25     7     8   ar
    26     8     9   ar
    27     9    10   ar
    28    10    11   ar
    29    11    12    2
    30    18    19   ar
    31    19    14   ar
    32    11     1   ar
    33     9     4   ar
    34    26    27    1
    35    20    21    1
@<TRIPOS>MOLECULE
*****
 33 35 0 0 0
SMALL
GASTEIGER

@<TRIPOS>ATOM
      1 C          62.6041   86.9890   12.0469 C.ar    1  UNL1        0.0543
      2 C          62.6264   88.2852   11.2923 C.ar    1  UNL1       -0.0163
      3 C          61.9462   88.3889    9.9595 C.3     1  UNL1        0.0310
      4 C          63.3290   89.4777   11.8706 C.ar    1  UNL1        0.0308
      5 C          63.3513   90.7739   11.1161 C.ar    1  UNL1        0.0058
      6 C          64.0539   91.9663   11.6944 C.ar    1  UNL1        0.0378
      7 C          64.7341   91.8625   13.0273 C.ar    1  UNL1        0.1531
      8 C          64.7118   90.5664   13.7818 C.ar    1  UNL1        0.0752
      9 C          64.0092   89.3739   13.2035 C.ar    1  UNL1        0.1514
     10 O          63.9869   88.0777   13.9580 O.2     1  UNL1       -0.4212
     11 C          63.2843   86.8853   13.3797 C.ar    1  UNL1        0.3417
     12 O          63.2620   85.5890   14.1343 O.2     1  UNL1       -0.2448
     13 C          61.9015   85.7965   11.4686 C.3     1  UNL1        0.0589
     14 C          63.7046   82.2682   11.6927 C.ar    1  UNL1        0.0655
     15 C          64.2568   82.1434   10.3037 C.ar    1  UNL1        0.0159
     16 C          64.0240   83.2363    9.3029 C.ar    1  UNL1        0.0010
     17 C          63.2389   84.4540    9.6912 C.ar    1  UNL1       -0.0038
     18 C          62.6866   84.5788   11.0803 C.ar    1  UNL1       -0.0163
     19 C          62.9194   83.4860   12.0810 C.ar    1  UNL1        0.0120
     20 N          63.9374   81.1754   12.6934 N.pl3   1  UNL1       -0.2054
     21 H          64.8190   80.7412   12.7520 H       1  UNL1        0.1748
     22 S          62.8269   80.7441   13.6048 S.O2    1  UNL1        0.1099
     23 O          62.3730   79.7473   12.5801 O.2     1  UNL1       -0.1381
     24 O          63.2808   81.7410   14.6296 O.2     1  UNL1       -0.1381
     25 C          60.2924   80.6256   14.1637 C.3     1  UNL1        0.1116
     26 N          61.7164   80.3128   14.5164 N.3     1  UNL1       -0.1652
     27 H          61.7826   79.2986   14.6017 H       1  UNL1        0.1502
     28 O          65.4367   93.0550   13.6056 O.3     1  UNL1       -0.4100
     29 C          66.7894   92.8967   14.2341 C.2     1  UNL1        0.4095
     30 O          68.0228   92.9459   13.3818 O.2     1  UNL1       -0.2258
     31 N          66.9088   92.6891   15.7149 N.am    1  UNL1       -0.2422
     32 C          68.2615   92.5308   16.3434 C.3     1  UNL1        0.1184
     33 C          65.6754   92.6399   16.5671 C.3     1  UNL1        0.1184
@<TRIPOS>BOND
     1    25    26    1
     2    26    22    1
     3    22    23    2
     4    22    24    2
     5    22    20    1
     6    20    14    1
     7    14    15   ar
     8    15    16   ar
     9    16    17   ar
    10    17    18   ar
    11    18    13    1
    12    13     1    1
    13     1     2   ar
    14     2     3    1
    15     2     4   ar
    16     4     5   ar
    17     5     6   ar
    18     6     7   ar
    19     7    28    1
    20    28    29    1
    21    29    30    2
    22    29    31   am
    23    31    32    1
    24    31    33    1
    25     7     8   ar
    26     8     9   ar
    27     9    10   ar
    28    10    11   ar
    29    11    12    2
    30    18    19   ar
    31    19    14   ar
    32    11     1   ar
    33     9     4   ar
    34    26    27    1
    35    20    21    1
@<TRIPOS>MOLECULE
*****
 33 35 0 0 0
SMALL
GASTEIGER

@<TRIPOS>ATOM
      1 C          63.3018   89.4626   12.7198 C.ar    1  UNL1        0.0543
      2 C          63.9231   88.6414   13.8104 C.ar    1  UNL1       -0.0163
      3 C          64.5820   89.3178   14.9759 C.3     1  UNL1        0.0310
      4 C          63.8854   87.1437   13.7357 C.ar    1  UNL1        0.0308
      5 C          64.5067   86.3224   14.8263 C.ar    1  UNL1        0.0058
      6 C          64.4690   84.8248   14.7515 C.ar    1  UNL1        0.0378
      7 C          63.8100   84.1484   13.5861 C.ar    1  UNL1        0.1531
      8 C          63.1887   84.9697   12.4954 C.ar    1  UNL1        0.0752
      9 C          63.2264   86.4673   12.5702 C.ar    1  UNL1        0.1514
     10 O          62.6051   87.2886   11.4795 O.2     1  UNL1       -0.4212
     11 C          62.6428   88.7862   11.5543 C.ar    1  UNL1        0.3417
     12 O          62.0215   89.6075   10.4636 O.2     1  UNL1       -0.2448
     13 C          63.3395   90.9603   12.7945 C.3     1  UNL1        0.0589
     14 C          66.7000   92.9024   11.9669 C.ar    1  UNL1        0.0655
     15 C          67.2667   93.0877   13.3433 C.ar    1  UNL1        0.0159
     16 C          66.5242   92.5639   14.5369 C.ar    1  UNL1        0.0010
     17 C          65.2152   91.8548   14.3539 C.ar    1  UNL1       -0.0038
     18 C          64.6485   91.6694   12.9775 C.ar    1  UNL1       -0.0163
     19 C          65.3909   92.1932   11.7840 C.ar    1  UNL1        0.0120
     20 N          67.4424   93.4261   10.7734 N.pl3   1  UNL1       -0.2054
     21 H          68.3289   93.0627   10.5467 H       1  UNL1        0.1748
     22 S          66.8343   94.5036    9.9254 S.O2    1  UNL1        0.1099
     23 O          66.4325   95.2505   11.1626 O.2     1  UNL1       -0.1381
     24 O          67.2360   93.7567    8.6882 O.2     1  UNL1       -0.1381
     25 C          67.1093   96.5476    8.3454 C.3     1  UNL1        0.1116
     26 N          66.2261   95.5811    9.0773 N.3     1  UNL1       -0.1652
     27 H          65.6538   95.1143    8.3738 H       1  UNL1        0.1502
     28 O          63.7723   82.6507   13.5113 O.3     1  UNL1       -0.4100
     29 C          63.8322   81.9645   12.1788 C.2     1  UNL1        0.4095
     30 O          64.6514   82.5527   11.0685 O.2     1  UNL1       -0.2258
     31 N          63.0727   80.6902   11.9566 N.am    1  UNL1       -0.2422
     32 C          63.1326   80.0040   10.6242 C.3     1  UNL1        0.1184
     33 C          62.2535   80.1020   13.0670 C.3     1  UNL1        0.1184
@<TRIPOS>BOND
     1    25    26    1
     2    26    22    1
     3    22    23    2
     4    22    24    2
     5    22    20    1
     6    20    14    1
     7    14    15   ar
     8    15    16   ar
     9    16    17   ar
    10    17    18   ar
    11    18    13    1
    12    13     1    1
    13     1     2   ar
    14     2     3    1
    15     2     4   ar
    16     4     5   ar
    17     5     6   ar
    18     6     7   ar
    19     7    28    1
    20    28    29    1
    21    29    30    2
    22    29    31   am
    23    31    32    1
    24    31    33    1
    25     7     8   ar
    26     8     9   ar
    27     9    10   ar
    28    10    11   ar
    29    11    12    2
    30    18    19   ar
    31    19    14   ar
    32    11     1   ar
    33     9     4   ar
    34    26    27    1
    35    20    21    1
@<TRIPOS>MOLECULE
*****
 33 35 0 0 0
SMALL
GASTEIGER

@<TRIPOS>ATOM
      1 C          62.8957   88.7506   12.0958 C.ar    1  UNL1        0.0543
      2 C          62.2633   87.6407   11.3096 C.ar    1  UNL1       -0.0163
      3 C          62.5074   86.2127   11.6983 C.3     1  UNL1        0.0310
      4 C          61.3867   87.9589   10.1347 C.ar    1  UNL1        0.0308
      5 C          60.7542   86.8490    9.3485 C.ar    1  UNL1        0.0058
      6 C          59.8776   87.1671    8.1737 C.ar    1  UNL1        0.0378
      7 C          59.6335   88.5952    7.7850 C.ar    1  UNL1        0.1531
      8 C          60.2660   89.7051    8.5711 C.ar    1  UNL1        0.0752
      9 C          61.1425   89.3869    9.7460 C.ar    1  UNL1        0.1514
     10 O          61.7750   90.4968   10.5322 O.2     1  UNL1       -0.4212
     11 C          62.6516   90.1787   11.7071 C.ar    1  UNL1        0.3417
     12 O          63.2841   91.2886   12.4933 O.2     1  UNL1       -0.2448
     13 C          63.7724   88.4325   13.2707 C.3     1  UNL1        0.0589
     14 C          65.5099   91.5208   15.0576 C.ar    1  UNL1        0.0655
     15 C          64.6973   91.6148   16.3149 C.ar    1  UNL1        0.0159
     16 C          63.5763   90.6479   16.5575 C.ar    1  UNL1        0.0010
     17 C          63.2680   89.5872   15.5428 C.ar    1  UNL1       -0.0038
     18 C          64.0806   89.4932   14.2854 C.ar    1  UNL1       -0.0163
     19 C          65.2015   90.4600   14.0429 C.ar    1  UNL1        0.0120
     20 N          66.6308   92.4876   14.8150 N.pl3   1  UNL1       -0.2054
     21 H          67.1830   92.8000   15.5678 H       1  UNL1        0.1748
     22 S          66.9103   92.9785   13.4255 S.O2    1  UNL1        0.1099
     23 O          68.1064   92.0767   13.3475 O.2     1  UNL1       -0.1381
     24 O          65.7141   93.8802   13.5034 O.2     1  UNL1       -0.1381
     25 C          66.2493   93.1305   10.9175 C.3     1  UNL1        0.1116
     26 N          67.1897   93.4694   12.0359 N.3     1  UNL1       -0.1652
     27 H          67.2327   94.4872   12.0862 H       1  UNL1        0.1502
     28 O          58.7569   88.9133    6.6100 O.3     1  UNL1       -0.4100
     29 C          59.0637   90.0995    5.7448 C.2     1  UNL1        0.4095
     30 O          60.4876   90.4465    5.4252 O.2     1  UNL1       -0.2258
     31 N          57.9466   90.9388    5.1990 N.am    1  UNL1       -0.2422
     32 C          58.2535   92.1250    4.3337 C.3     1  UNL1        0.1184
     33 C          56.5227   90.5918    5.5185 C.3     1  UNL1        0.1184
@<TRIPOS>BOND
     1    25    26    1
     2    26    22    1
     3    22    23    2
     4    22    24    2
     5    22    20    1
     6    20    14    1
     7    14    15   ar
     8    15    16   ar
     9    16    17   ar
    10    17    18   ar
    11    18    13    1
    12    13     1    1
    13     1     2   ar
    14     2     3    1
    15     2     4   ar
    16     4     5   ar
    17     5     6   ar
    18     6     7   ar
    19     7    28    1
    20    28    29    1
    21    29    30    2
    22    29    31   am
    23    31    32    1
    24    31    33    1
    25     7     8   ar
    26     8     9   ar
    27     9    10   ar
    28    10    11   ar
    29    11    12    2
    30    18    19   ar
    31    19    14   ar
    32    11     1   ar
    33     9     4   ar
    34    26    27    1
    35    20    21    1
@<TRIPOS>MOLECULE
*****
 33 35 0 0 0
SMALL
GASTEIGER

@<TRIPOS>ATOM
      1 C          61.1460   89.9770   11.0478 C.ar    1  UNL1        0.0543
      2 C          62.4320   90.6992   10.7747 C.ar    1  UNL1       -0.0163
      3 C          62.7752   91.1166    9.3755 C.3     1  UNL1        0.0310
      4 C          63.3748   91.0040   11.9009 C.ar    1  UNL1        0.0308
      5 C          64.6608   91.7262   11.6279 C.ar    1  UNL1        0.0058
      6 C          65.6035   92.0310   12.7540 C.ar    1  UNL1        0.0378
      7 C          65.2602   91.6136   14.1533 C.ar    1  UNL1        0.1531
      8 C          63.9743   90.8914   14.4264 C.ar    1  UNL1        0.0752
      9 C          63.0315   90.5866   13.3002 C.ar    1  UNL1        0.1514
     10 O          61.7455   89.8644   13.5733 O.2     1  UNL1       -0.4212
     11 C          60.8028   89.5596   12.4471 C.ar    1  UNL1        0.3417
     12 O          59.5167   88.8373   12.7202 O.2     1  UNL1       -0.2448
     13 C          60.2032   89.6721    9.9216 C.3     1  UNL1        0.0589
     14 C          61.5858   86.1593    8.6975 C.ar    1  UNL1        0.0655
     15 C          60.5254   85.7649    7.7127 C.ar    1  UNL1        0.0159
     16 C          59.3576   86.6729    7.4641 C.ar    1  UNL1        0.0010
     17 C          59.2502   87.9753    8.2004 C.ar    1  UNL1       -0.0038
     18 C          60.3106   88.3697    9.1853 C.ar    1  UNL1       -0.0163
     19 C          61.4784   87.4618    9.4339 C.ar    1  UNL1        0.0120
     20 N          62.7536   85.2513    8.9461 N.pl3   1  UNL1       -0.2054
     21 H          63.4735   85.1811    8.2782 H       1  UNL1        0.1748
     22 S          62.8246   84.4503   10.2123 S.O2    1  UNL1        0.1099
     23 O          63.8997   83.5947    9.6107 O.2     1  UNL1       -0.1381
     24 O          61.7495   85.3060   10.8139 O.2     1  UNL1       -0.1381
     25 C          64.2242   83.3722   12.1173 C.3     1  UNL1        0.1116
     26 N          62.8955   83.6493   11.4786 N.3     1  UNL1       -0.1652
     27 H          62.3331   84.1434   12.1714 H       1  UNL1        0.1502
     28 O          66.2030   91.9185   15.2795 O.3     1  UNL1       -0.4100
     29 C          67.0628   93.1464   15.2263 C.2     1  UNL1        0.4095
     30 O          66.5878   94.3633   14.4891 O.2     1  UNL1       -0.2258
     31 N          68.3978   93.1575   15.9103 N.am    1  UNL1       -0.2422
     32 C          69.2576   94.3854   15.8571 C.3     1  UNL1        0.1184
     33 C          68.8729   91.9406   16.6475 C.3     1  UNL1        0.1184
@<TRIPOS>BOND
     1    25    26    1
     2    26    22    1
     3    22    23    2
     4    22    24    2
     5    22    20    1
     6    20    14    1
     7    14    15   ar
     8    15    16   ar
     9    16    17   ar
    10    17    18   ar
    11    18    13    1
    12    13     1    1
    13     1     2   ar
    14     2     3    1
    15     2     4   ar
    16     4     5   ar
    17     5     6   ar
    18     6     7   ar
    19     7    28    1
    20    28    29    1
    21    29    30    2
    22    29    31   am
    23    31    32    1
    24    31    33    1
    25     7     8   ar
    26     8     9   ar
    27     9    10   ar
    28    10    11   ar
    29    11    12    2
    30    18    19   ar
    31    19    14   ar
    32    11     1   ar
    33     9     4   ar
    34    26    27    1
    35    20    21    1
