@<TRIPOS>MOLECULE
*****
 28 31 0 0 0
SMALL
GASTEIGER

@<TRIPOS>ATOM
      1 C          64.3407   90.4736   14.4760 C.ar    1  UNL1        0.2337
      2 O          65.8004   90.8079   14.3886 O.2     1  UNL1       -0.4441
      3 C          66.0376   91.5112   13.0851 C.ar    1  UNL1        0.1659
      4 C          67.2796   92.0732   12.4594 C.ar    1  UNL1        0.1363
      5 N          67.2086   92.7356   11.1155 N.ar    1  UNL1       -0.2391
      6 C          65.8955   92.8360   10.3973 C.ar    1  UNL1        0.0991
      7 C          64.6535   92.2740   11.0230 C.ar    1  UNL1        0.0251
      8 C          64.7246   91.6116   12.3669 C.ar    1  UNL1        0.0543
      9 C          63.6758   90.9703   13.2266 C.ar    1  UNL1        0.0929
     10 C          63.6647   89.7667   15.6132 C.2     1  UNL1        0.3776
     11 O          63.1104   90.5548   16.7629 O.2     1  UNL1       -0.2414
     12 O          63.5428   88.2718   15.6008 O.3     1  UNL1       -0.4433
     13 C          64.6588   86.0212   14.9374 C.3     1  UNL1        0.0513
     14 C          64.3598   87.4606   14.6392 C.3     1  UNL1        0.2090
     15 N          62.2181   90.8474   12.8949 N.pl3   1  UNL1       -0.3099
     16 H          61.5534   91.3735   13.3954 H       1  UNL1        0.1523
     17 C          61.7733   89.9229   11.8008 C.ar    1  UNL1        0.0481
     18 C          60.6035   90.2912   10.9369 C.ar    1  UNL1        0.0146
     19 C          60.1586   89.3667    9.8427 C.ar    1  UNL1        0.0022
     20 C          60.8834   88.0738    9.6123 C.ar    1  UNL1        0.0128
     21 C          62.0530   87.7054   10.4761 C.ar    1  UNL1       -0.0193
     22 C          62.4980   88.6299   11.5703 C.ar    1  UNL1        0.0104
     23 C          62.5681   86.3740   10.0157 C.3     1  UNL1        0.0328
     24 C          61.7168   85.9195    8.8674 C.3     1  UNL1        0.0538
     25 C          60.6755   86.9701    8.6181 C.2     1  UNL1        0.0968
     26 N          59.6130   86.9248    7.5602 N.2     1  UNL1       -0.0908
     27 O          58.6357   88.0552    7.4300 O.2     1  UNL1       -0.4090
     28 H          57.9720   88.0270    6.7692 H       1  UNL1        0.3278
@<TRIPOS>BOND
     1    13    14    1
     2    14    12    1
     3    12    10    1
     4    10    11    2
     5    10     1    1
     6     1     2   ar
     7     2     3   ar
     8     3     4   ar
     9     4     5   ar
    10     5     6   ar
    11     6     7   ar
    12     7     8   ar
    13     8     9   ar
    14     9    15    1
    15    15    17    1
    16    17    18   ar
    17    18    19   ar
    18    19    20   ar
    19    20    21   ar
    20    21    22   ar
    21    21    23    1
    22    23    24    1
    23    24    25    1
    24    25    26    2
    25    26    27    1
    26     9     1   ar
    27    22    17   ar
    28     8     3   ar
    29    25    20    1
    30    15    16    1
    31    27    28    1
@<TRIPOS>MOLECULE
*****
 28 31 0 0 0
SMALL
GASTEIGER

@<TRIPOS>ATOM
      1 C          62.0706   86.2828   11.1972 C.ar    1  UNL1        0.2337
      2 O          61.7550   85.5051    9.9540 O.2     1  UNL1       -0.4441
      3 C          60.9501   86.3878    9.0468 C.ar    1  UNL1        0.1659
      4 C          60.3593   86.1576    7.6875 C.ar    1  UNL1        0.1363
      5 N          59.5867   87.2507    7.0107 N.ar    1  UNL1       -0.2391
      6 C          59.4049   88.5740    7.6932 C.ar    1  UNL1        0.0991
      7 C          59.9957   88.8042    9.0525 C.ar    1  UNL1        0.0251
      8 C          60.7683   87.7111    9.7293 C.ar    1  UNL1        0.0543
      9 C          61.4609   87.6462   11.0583 C.ar    1  UNL1        0.0929
     10 C          62.8579   85.7846   12.3728 C.2     1  UNL1        0.3776
     11 O          63.5098   86.7606   13.3068 O.2     1  UNL1       -0.2414
     12 O          62.9931   84.3104   12.6145 O.3     1  UNL1       -0.4433
     13 C          64.3070   83.0560   10.7569 C.3     1  UNL1        0.0513
     14 C          64.2244   83.5855   12.1580 C.3     1  UNL1        0.2090
     15 N          61.5312   88.7508   12.0707 N.pl3   1  UNL1       -0.3099
     16 H          60.8692   88.7948   12.7981 H       1  UNL1        0.1523
     17 C          62.6101   89.7884   11.9750 C.ar    1  UNL1        0.0481
     18 C          62.8121   90.5446   10.6953 C.ar    1  UNL1        0.0146
     19 C          63.8910   91.5822   10.5994 C.ar    1  UNL1        0.0022
     20 C          64.7680   91.8637   11.7833 C.ar    1  UNL1        0.0128
     21 C          64.5661   91.1076   13.0629 C.ar    1  UNL1       -0.0193
     22 C          63.4872   90.0700   13.1588 C.ar    1  UNL1        0.0104
     23 C          65.5777   91.5984   14.0558 C.3     1  UNL1        0.0328
     24 C          66.4048   92.6577   13.3898 C.3     1  UNL1        0.0538
     25 C          65.9044   92.8217   11.9853 C.2     1  UNL1        0.0968
     26 N          66.4454   93.7762   10.9623 N.2     1  UNL1       -0.0908
     27 O          65.8398   93.8284    9.5910 O.2     1  UNL1       -0.4090
     28 H          66.1777   94.4247    8.9520 H       1  UNL1        0.3278
@<TRIPOS>BOND
     1    13    14    1
     2    14    12    1
     3    12    10    1
     4    10    11    2
     5    10     1    1
     6     1     2   ar
     7     2     3   ar
     8     3     4   ar
     9     4     5   ar
    10     5     6   ar
    11     6     7   ar
    12     7     8   ar
    13     8     9   ar
    14     9    15    1
    15    15    17    1
    16    17    18   ar
    17    18    19   ar
    18    19    20   ar
    19    20    21   ar
    20    21    22   ar
    21    21    23    1
    22    23    24    1
    23    24    25    1
    24    25    26    2
    25    26    27    1
    26     9     1   ar
    27    22    17   ar
    28     8     3   ar
    29    25    20    1
    30    15    16    1
    31    27    28    1
@<TRIPOS>MOLECULE
*****
 28 31 0 0 0
SMALL
GASTEIGER

@<TRIPOS>ATOM
      1 C          62.0151   85.8582    9.8804 C.ar    1  UNL1        0.2337
      2 O          62.7263   84.5395    9.9528 O.2     1  UNL1       -0.4441
      3 C          63.3193   84.4073   11.3242 C.ar    1  UNL1        0.1659
      4 C          64.1286   83.3204   11.9673 C.ar    1  UNL1        0.1363
      5 N          64.5933   83.4705   13.3856 N.ar    1  UNL1       -0.2391
      6 C          64.2485   84.7075   14.1608 C.ar    1  UNL1        0.0991
      7 C          63.4392   85.7945   13.5177 C.ar    1  UNL1        0.0251
      8 C          62.9746   85.6444   12.0995 C.ar    1  UNL1        0.0543
      9 C          62.1686   86.5410   11.2071 C.ar    1  UNL1        0.0929
     10 C          61.2796   86.3991    8.6902 C.2     1  UNL1        0.3776
     11 O          61.2842   85.6394    7.3969 O.2     1  UNL1       -0.2414
     12 O          60.5394   87.6996    8.7935 O.3     1  UNL1       -0.4433
     13 C          59.4414   89.2600    7.0300 C.3     1  UNL1        0.0513
     14 C          59.4169   88.0010    7.8452 C.3     1  UNL1        0.2090
     15 N          61.6134   87.8846   11.5766 N.pl3   1  UNL1       -0.3099
     16 H          60.6488   87.9899   11.7428 H       1  UNL1        0.1523
     17 C          62.5279   89.0678   11.6930 C.ar    1  UNL1        0.0481
     18 C          62.6320   90.0493   10.5633 C.ar    1  UNL1        0.0146
     19 C          63.5465   91.2325   10.6796 C.ar    1  UNL1        0.0022
     20 C          64.3570   91.4343   11.9256 C.ar    1  UNL1        0.0128
     21 C          64.2530   90.4530   13.0551 C.ar    1  UNL1       -0.0193
     22 C          63.3385   89.2697   12.9389 C.ar    1  UNL1        0.0104
     23 C          65.1681   90.9103   14.1522 C.3     1  UNL1        0.0328
     24 C          65.8376   92.1743   13.7006 C.3     1  UNL1        0.0538
     25 C          65.3364   92.4982   12.3244 C.2     1  UNL1        0.0968
     26 N          65.7431   93.6787   11.4931 N.2     1  UNL1       -0.0908
     27 O          65.1540   93.8729   10.1274 O.2     1  UNL1       -0.4090
     28 H          65.4080   94.6103    9.6081 H       1  UNL1        0.3278
@<TRIPOS>BOND
     1    13    14    1
     2    14    12    1
     3    12    10    1
     4    10    11    2
     5    10     1    1
     6     1     2   ar
     7     2     3   ar
     8     3     4   ar
     9     4     5   ar
    10     5     6   ar
    11     6     7   ar
    12     7     8   ar
    13     8     9   ar
    14     9    15    1
    15    15    17    1
    16    17    18   ar
    17    18    19   ar
    18    19    20   ar
    19    20    21   ar
    20    21    22   ar
    21    21    23    1
    22    23    24    1
    23    24    25    1
    24    25    26    2
    25    26    27    1
    26     9     1   ar
    27    22    17   ar
    28     8     3   ar
    29    25    20    1
    30    15    16    1
    31    27    28    1
@<TRIPOS>MOLECULE
*****
 28 31 0 0 0
SMALL
GASTEIGER

@<TRIPOS>ATOM
      1 C          64.3081   90.5266   14.5540 C.ar    1  UNL1        0.2337
      2 O          65.7332   90.9946   14.5513 O.2     1  UNL1       -0.4441
      3 C          65.9939   91.6791   13.2423 C.ar    1  UNL1        0.1659
      4 C          67.2189   92.3375   12.6804 C.ar    1  UNL1        0.1363
      5 N          67.1799   92.9509   11.3122 N.ar    1  UNL1       -0.2391
      6 C          65.9159   92.9059   10.5058 C.ar    1  UNL1        0.0991
      7 C          64.6909   92.2475   11.0677 C.ar    1  UNL1        0.0251
      8 C          64.7299   91.6341   12.4359 C.ar    1  UNL1        0.0543
      9 C          63.6880   90.9218   13.2466 C.ar    1  UNL1        0.0929
     10 C          63.6233   89.7923   15.6684 C.2     1  UNL1        0.3776
     11 O          63.1129   90.5457   16.8607 O.2     1  UNL1       -0.2414
     12 O          63.4490   88.3045   15.5905 O.3     1  UNL1       -0.4433
     13 C          64.5802   86.0328   15.0337 C.3     1  UNL1        0.0513
     14 C          64.3654   87.4860   14.7301 C.3     1  UNL1        0.2090
     15 N          62.2743   90.6521   12.8240 N.pl3   1  UNL1       -0.3099
     16 H          61.5295   91.1111   13.2755 H       1  UNL1        0.1523
     17 C          61.9952   89.6831   11.7136 C.ar    1  UNL1        0.0481
     18 C          62.7893   88.4148   11.6077 C.ar    1  UNL1        0.0146
     19 C          62.5103   87.4457   10.4973 C.ar    1  UNL1        0.0022
     20 C          61.4372   87.7449    9.4928 C.ar    1  UNL1        0.0128
     21 C          60.6431   89.0130    9.5987 C.ar    1  UNL1       -0.0193
     22 C          60.9221   89.9821   10.7091 C.ar    1  UNL1        0.0104
     23 C          59.6553   89.0370    8.4701 C.3     1  UNL1        0.0328
     24 C          59.8389   87.7837    7.6668 C.3     1  UNL1        0.0538
     25 C          60.9401   86.9851    8.2988 C.2     1  UNL1        0.0968
     26 N          61.4541   85.6595    7.8207 N.2     1  UNL1       -0.0908
     27 O          62.5666   84.9759    8.5590 O.2     1  UNL1       -0.4090
     28 H          62.8877   84.1478    8.2604 H       1  UNL1        0.3278
@<TRIPOS>BOND
     1    13    14    1
     2    14    12    1
     3    12    10    1
     4    10    11    2
     5    10     1    1
     6     1     2   ar
     7     2     3   ar
     8     3     4   ar
     9     4     5   ar
    10     5     6   ar
    11     6     7   ar
    12     7     8   ar
    13     8     9   ar
    14     9    15    1
    15    15    17    1
    16    17    18   ar
    17    18    19   ar
    18    19    20   ar
    19    20    21   ar
    20    21    22   ar
    21    21    23    1
    22    23    24    1
    23    24    25    1
    24    25    26    2
    25    26    27    1
    26     9     1   ar
    27    22    17   ar
    28     8     3   ar
    29    25    20    1
    30    15    16    1
    31    27    28    1
@<TRIPOS>MOLECULE
*****
 28 31 0 0 0
SMALL
GASTEIGER

@<TRIPOS>ATOM
      1 C          61.2981   87.4239    9.8845 C.ar    1  UNL1        0.2337
      2 O          61.6887   86.0476    9.4336 O.2     1  UNL1       -0.4441
      3 C          62.4547   85.3952   10.5461 C.ar    1  UNL1        0.1659
      4 C          63.0875   84.0409   10.6694 C.ar    1  UNL1        0.1363
      5 N          63.8031   83.6596   11.9313 N.ar    1  UNL1       -0.2391
      6 C          63.8860   84.6327   13.0699 C.ar    1  UNL1        0.0991
      7 C          63.2532   85.9870   12.9465 C.ar    1  UNL1        0.0251
      8 C          62.5376   86.3683   11.6846 C.ar    1  UNL1        0.0543
      9 C          61.8227   87.6220   11.2757 C.ar    1  UNL1        0.0929
     10 C          60.5196   88.4260    9.0847 C.2     1  UNL1        0.3776
     11 O          60.2738   89.7986    9.6372 O.2     1  UNL1       -0.2414
     12 O          59.9869   88.0554    7.7324 O.3     1  UNL1       -0.4433
     13 C          59.4739   89.9381    6.0170 C.3     1  UNL1        0.0513
     14 C          59.0009   88.9515    7.0433 C.3     1  UNL1        0.2090
     15 N          61.6610   88.8572   12.1114 N.pl3   1  UNL1       -0.3099
     16 H          60.7869   89.0699   12.5112 H       1  UNL1        0.1523
     17 C          62.8309   89.7681   12.3379 C.ar    1  UNL1        0.0481
     18 C          63.6066   89.6882   13.6193 C.ar    1  UNL1        0.0146
     19 C          64.7766   90.5991   13.8458 C.ar    1  UNL1        0.0022
     20 C          65.1709   91.5900   12.7909 C.ar    1  UNL1        0.0128
     21 C          64.3953   91.6698   11.5096 C.ar    1  UNL1       -0.0193
     22 C          63.2253   90.7589   11.2830 C.ar    1  UNL1        0.0104
     23 C          65.0146   92.7388   10.6588 C.3     1  UNL1        0.0328
     24 C          66.1729   93.3195   11.4143 C.3     1  UNL1        0.0538
     25 C          66.2696   92.6095   12.7321 C.2     1  UNL1        0.0968
     26 N          67.2864   92.8728   13.8030 N.2     1  UNL1       -0.0908
     27 O          67.2585   92.0787   15.0753 O.2     1  UNL1       -0.4090
     28 H          67.8936   92.2432   15.7442 H       1  UNL1        0.3278
@<TRIPOS>BOND
     1    13    14    1
     2    14    12    1
     3    12    10    1
     4    10    11    2
     5    10     1    1
     6     1     2   ar
     7     2     3   ar
     8     3     4   ar
     9     4     5   ar
    10     5     6   ar
    11     6     7   ar
    12     7     8   ar
    13     8     9   ar
    14     9    15    1
    15    15    17    1
    16    17    18   ar
    17    18    19   ar
    18    19    20   ar
    19    20    21   ar
    20    21    22   ar
    21    21    23    1
    22    23    24    1
    23    24    25    1
    24    25    26    2
    25    26    27    1
    26     9     1   ar
    27    22    17   ar
    28     8     3   ar
    29    25    20    1
    30    15    16    1
    31    27    28    1
@<TRIPOS>MOLECULE
*****
 28 31 0 0 0
SMALL
GASTEIGER

@<TRIPOS>ATOM
      1 C          62.1587   86.2225   11.2552 C.ar    1  UNL1        0.2337
      2 O          61.8478   85.5785    9.9366 O.2     1  UNL1       -0.4441
      3 C          61.0637   86.5586    9.1154 C.ar    1  UNL1        0.1659
      4 C          60.4855   86.4746    7.7339 C.ar    1  UNL1        0.1363
      5 N          59.7335   87.6404    7.1634 N.ar    1  UNL1       -0.2391
      6 C          59.5598   88.8902    7.9744 C.ar    1  UNL1        0.0991
      7 C          60.1380   88.9743    9.3559 C.ar    1  UNL1        0.0251
      8 C          60.8900   87.8085    9.9264 C.ar    1  UNL1        0.0543
      9 C          61.5667   87.6007   11.2488 C.ar    1  UNL1        0.0929
     10 C          62.9267   85.5979   12.3822 C.2     1  UNL1        0.3776
     11 O          63.5699   86.4657   13.4229 O.2     1  UNL1       -0.2414
     12 O          63.0514   84.1056   12.4684 O.3     1  UNL1       -0.4433
     13 C          64.2098   82.9366   10.4580 C.3     1  UNL1        0.0513
     14 C          64.2466   83.4176   11.8784 C.3     1  UNL1        0.2090
     15 N          61.6388   88.5964   12.3684 N.pl3   1  UNL1       -0.3099
     16 H          60.9611   88.5841   13.0824 H       1  UNL1        0.1523
     17 C          62.7432   89.6108   12.4000 C.ar    1  UNL1        0.0481
     18 C          63.6028   89.7457   13.6219 C.ar    1  UNL1        0.0146
     19 C          64.7073   90.7602   13.6536 C.ar    1  UNL1        0.0022
     20 C          64.9522   91.6397   12.4634 C.ar    1  UNL1        0.0128
     21 C          64.0926   91.5047   11.2416 C.ar    1  UNL1       -0.0193
     22 C          62.9881   90.4903   11.2099 C.ar    1  UNL1        0.0104
     23 C          64.5680   92.5030   10.2280 C.3     1  UNL1        0.0328
     24 C          65.7213   93.2549   10.8233 C.3     1  UNL1        0.0538
     25 C          65.9588   92.7213   12.2049 C.2     1  UNL1        0.0968
     26 N          67.0171   93.1875   13.1603 N.2     1  UNL1       -0.0908
     27 O          67.1346   92.5561   14.5159 O.2     1  UNL1       -0.4090
     28 H          67.7956   92.8474   15.1127 H       1  UNL1        0.3278
@<TRIPOS>BOND
     1    13    14    1
     2    14    12    1
     3    12    10    1
     4    10    11    2
     5    10     1    1
     6     1     2   ar
     7     2     3   ar
     8     3     4   ar
     9     4     5   ar
    10     5     6   ar
    11     6     7   ar
    12     7     8   ar
    13     8     9   ar
    14     9    15    1
    15    15    17    1
    16    17    18   ar
    17    18    19   ar
    18    19    20   ar
    19    20    21   ar
    20    21    22   ar
    21    21    23    1
    22    23    24    1
    23    24    25    1
    24    25    26    2
    25    26    27    1
    26     9     1   ar
    27    22    17   ar
    28     8     3   ar
    29    25    20    1
    30    15    16    1
    31    27    28    1
@<TRIPOS>MOLECULE
*****
 28 31 0 0 0
SMALL
GASTEIGER

@<TRIPOS>ATOM
      1 C          62.0234   86.1982   10.0957 C.ar    1  UNL1        0.2337
      2 O          62.7271   84.8755   10.1672 O.2     1  UNL1       -0.4441
      3 C          63.3564   84.7579   11.5238 C.ar    1  UNL1        0.1659
      4 C          64.1754   83.6740   12.1597 C.ar    1  UNL1        0.1363
      5 N          64.6796   83.8402   13.5626 N.ar    1  UNL1       -0.2391
      6 C          64.3648   85.0903   14.3295 C.ar    1  UNL1        0.0991
      7 C          63.5458   86.1741   13.6936 C.ar    1  UNL1        0.0251
      8 C          63.0416   86.0079   12.2907 C.ar    1  UNL1        0.0543
      9 C          62.2178   86.8981   11.4081 C.ar    1  UNL1        0.0929
     10 C          61.2595   86.7280    8.9186 C.2     1  UNL1        0.3776
     11 O          60.7700   88.1459    8.9187 O.2     1  UNL1       -0.2414
     12 O          60.9850   85.8400    7.7413 O.3     1  UNL1       -0.4433
     13 C          61.8699   84.3486    5.8067 C.3     1  UNL1        0.0513
     14 C          62.1095   85.0943    7.0861 C.3     1  UNL1        0.2090
     15 N          61.6823   88.2507   11.7738 N.pl3   1  UNL1       -0.3099
     16 H          60.7102   88.4008   11.8142 H       1  UNL1        0.1523
     17 C          62.6280   89.3746   12.0779 C.ar    1  UNL1        0.0481
     18 C          63.0136   89.6670   13.4977 C.ar    1  UNL1        0.0146
     19 C          63.9592   90.7910   13.8019 C.ar    1  UNL1        0.0022
     20 C          64.5193   91.6225   12.6861 C.ar    1  UNL1        0.0128
     21 C          64.1338   91.3301   11.2664 C.ar    1  UNL1       -0.0193
     22 C          63.1881   90.2062   10.9622 C.ar    1  UNL1        0.0104
     23 C          64.8414   92.3136   10.3820 C.3     1  UNL1        0.0328
     24 C          65.6643   93.2137   11.2553 C.3     1  UNL1        0.0538
     25 C          65.4653   92.7866   12.6793 C.2     1  UNL1        0.0968
     26 N          66.1006   93.4135   13.8849 N.2     1  UNL1       -0.0908
     27 O          65.8054   92.8754   15.2535 O.2     1  UNL1       -0.4090
     28 H          66.2023   93.2670   16.0066 H       1  UNL1        0.3278
@<TRIPOS>BOND
     1    13    14    1
     2    14    12    1
     3    12    10    1
     4    10    11    2
     5    10     1    1
     6     1     2   ar
     7     2     3   ar
     8     3     4   ar
     9     4     5   ar
    10     5     6   ar
    11     6     7   ar
    12     7     8   ar
    13     8     9   ar
    14     9    15    1
    15    15    17    1
    16    17    18   ar
    17    18    19   ar
    18    19    20   ar
    19    20    21   ar
    20    21    22   ar
    21    21    23    1
    22    23    24    1
    23    24    25    1
    24    25    26    2
    25    26    27    1
    26     9     1   ar
    27    22    17   ar
    28     8     3   ar
    29    25    20    1
    30    15    16    1
    31    27    28    1
@<TRIPOS>MOLECULE
*****
 28 31 0 0 0
SMALL
GASTEIGER

@<TRIPOS>ATOM
      1 C          67.1620   92.4677   11.7096 C.ar    1  UNL1        0.2337
      2 O          68.3370   92.4464   12.6417 O.2     1  UNL1       -0.4441
      3 C          67.8133   92.4079   14.0469 C.ar    1  UNL1        0.1659
      4 C          68.5075   92.3748   15.3761 C.ar    1  UNL1        0.1363
      5 N          67.7030   92.3393   16.6416 N.ar    1  UNL1       -0.2391
      6 C          66.2044   92.3369   16.5778 C.ar    1  UNL1        0.0991
      7 C          65.5102   92.3700   15.2486 C.ar    1  UNL1        0.0251
      8 C          66.3147   92.4055   13.9831 C.ar    1  UNL1        0.0543
      9 C          65.9122   92.4425   12.5386 C.ar    1  UNL1        0.0929
     10 C          67.2257   92.5074   10.2114 C.2     1  UNL1        0.3776
     11 O          68.1543   91.5875    9.4756 O.2     1  UNL1       -0.2414
     12 O          66.3608   93.4669    9.4491 O.3     1  UNL1       -0.4433
     13 C          66.6034   95.7863   10.5945 C.3     1  UNL1        0.0513
     14 C          66.7330   94.9183    9.3780 C.3     1  UNL1        0.2090
     15 N          64.5065   92.4524   12.0150 N.pl3   1  UNL1       -0.3099
     16 H          64.0561   93.3081   11.8302 H       1  UNL1        0.1523
     17 C          63.7871   91.1587   11.7729 C.ar    1  UNL1        0.0481
     18 C          64.0095   89.9936   12.6912 C.ar    1  UNL1        0.0146
     19 C          63.2901   88.6999   12.4492 C.ar    1  UNL1        0.0022
     20 C          62.3483   88.5711   11.2888 C.ar    1  UNL1        0.0128
     21 C          62.1259   89.7361   10.3706 C.ar    1  UNL1       -0.0193
     22 C          62.8453   91.0299   10.6126 C.ar    1  UNL1        0.0104
     23 C          61.1450   89.3150    9.3167 C.3     1  UNL1        0.0328
     24 C          60.7612   87.8898    9.5838 C.3     1  UNL1        0.0538
     25 C          61.5049   87.4300   10.8026 C.2     1  UNL1        0.0968
     26 N          61.4200   86.0682   11.4258 N.2     1  UNL1       -0.0908
     27 O          62.2270   85.7520   12.6500 O.2     1  UNL1       -0.4090
     28 H          62.1740   84.9013   13.0393 H       1  UNL1        0.3278
@<TRIPOS>BOND
     1    13    14    1
     2    14    12    1
     3    12    10    1
     4    10    11    2
     5    10     1    1
     6     1     2   ar
     7     2     3   ar
     8     3     4   ar
     9     4     5   ar
    10     5     6   ar
    11     6     7   ar
    12     7     8   ar
    13     8     9   ar
    14     9    15    1
    15    15    17    1
    16    17    18   ar
    17    18    19   ar
    18    19    20   ar
    19    20    21   ar
    20    21    22   ar
    21    21    23    1
    22    23    24    1
    23    24    25    1
    24    25    26    2
    25    26    27    1
    26     9     1   ar
    27    22    17   ar
    28     8     3   ar
    29    25    20    1
    30    15    16    1
    31    27    28    1
@<TRIPOS>MOLECULE
*****
 28 31 0 0 0
SMALL
GASTEIGER

@<TRIPOS>ATOM
      1 C          62.7789   90.9618   10.9528 C.ar    1  UNL1        0.2337
      2 O          63.5573   91.8933   10.0716 O.2     1  UNL1       -0.4441
      3 C          64.7708   92.3430   10.8299 C.ar    1  UNL1        0.1659
      4 C          65.8980   93.2632   10.4657 C.ar    1  UNL1        0.1363
      5 N          66.9968   93.5299   11.4513 N.ar    1  UNL1       -0.2391
      6 C          66.9685   92.8763   12.8011 C.ar    1  UNL1        0.0991
      7 C          65.8413   91.9561   13.1654 C.ar    1  UNL1        0.0251
      8 C          64.7425   91.6895   12.1798 C.ar    1  UNL1        0.0543
      9 C          63.5114   90.8359   12.2557 C.ar    1  UNL1        0.0929
     10 C          61.4937   90.2766   10.5940 C.2     1  UNL1        0.3776
     11 O          60.3350   90.3095   11.5461 O.2     1  UNL1       -0.2414
     12 O          61.3671   89.5584    9.2833 O.3     1  UNL1       -0.4433
     13 C          60.1443   87.2661    9.3009 C.3     1  UNL1        0.0513
     14 C          60.1475   88.7344    8.9942 C.3     1  UNL1        0.2090
     15 N          63.0873   90.0026   13.4286 N.pl3   1  UNL1       -0.3099
     16 H          62.6770   90.4311   14.2142 H       1  UNL1        0.1523
     17 C          63.2884   88.5164   13.4047 C.ar    1  UNL1        0.0481
     18 C          64.0052   87.8382   14.5345 C.ar    1  UNL1        0.0146
     19 C          64.2064   86.3519   14.5106 C.ar    1  UNL1        0.0022
     20 C          63.6907   85.5438   13.3569 C.ar    1  UNL1        0.0128
     21 C          62.9740   86.2219   12.2271 C.ar    1  UNL1       -0.0193
     22 C          62.7728   87.7082   12.2510 C.ar    1  UNL1        0.0104
     23 C          62.5798   85.1716   11.2314 C.3     1  UNL1        0.0328
     24 C          63.0530   83.8444   11.7458 C.3     1  UNL1        0.0538
     25 C          63.7396   84.0744   13.0594 C.2     1  UNL1        0.0968
     26 N          64.3652   83.0202   13.9238 N.2     1  UNL1       -0.0908
     27 O          65.0193   83.4026   15.2184 O.2     1  UNL1       -0.4090
     28 H          65.4101   82.7441   15.7583 H       1  UNL1        0.3278
@<TRIPOS>BOND
     1    13    14    1
     2    14    12    1
     3    12    10    1
     4    10    11    2
     5    10     1    1
     6     1     2   ar
     7     2     3   ar
     8     3     4   ar
     9     4     5   ar
    10     5     6   ar
    11     6     7   ar
    12     7     8   ar
    13     8     9   ar
    14     9    15    1
    15    15    17    1
    16    17    18   ar
    17    18    19   ar
    18    19    20   ar
    19    20    21   ar
    20    21    22   ar
    21    21    23    1
    22    23    24    1
    23    24    25    1
    24    25    26    2
    25    26    27    1
    26     9     1   ar
    27    22    17   ar
    28     8     3   ar
    29    25    20    1
    30    15    16    1
    31    27    28    1
