@<TRIPOS>MOLECULE
*****
 39 44 0 0 0
SMALL
GASTEIGER

@<TRIPOS>ATOM
      1 O          58.2076   87.4812    6.9497 O.2     1  UNL1       -0.2749
      2 C          59.2095   88.5629    7.2255 C.2     1  UNL1        0.2252
      3 N          60.0988   88.4720    8.4300 N.am    1  UNL1       -0.2794
      4 C          59.9862   87.2994    9.3587 C.3     1  UNL1        0.0953
      5 C          60.8755   87.2085   10.5632 C.3     1  UNL1        0.0442
      6 C          61.8775   88.2903   10.8391 C.3     1  UNL1        0.0933
      7 C          61.9901   89.4628    9.9104 C.3     1  UNL1        0.0442
      8 C          61.1007   89.5537    8.7059 C.3     1  UNL1        0.0953
      9 N          62.7668   88.1994   12.0436 N.ar    1  UNL1       -0.2817
     10 C          63.1225   86.9444   12.7842 C.ar    1  UNL1        0.3315
     11 O          62.6513   85.5600   12.4504 O.2     1  UNL1       -0.2463
     12 N          64.0321   87.3170   13.9173 N.ar    1  UNL1       -0.2785
     13 C          64.2385   88.8021   13.8770 C.ar    1  UNL1        0.0797
     14 C          65.0376   89.7283   14.7451 C.ar    1  UNL1        0.0188
     15 C          65.0546   91.1999   14.4551 C.ar    1  UNL1        0.0016
     16 C          64.2726   91.7453   13.2971 C.ar    1  UNL1        0.0016
     17 C          63.4736   90.8191   12.4290 C.ar    1  UNL1        0.0188
     18 C          63.4565   89.3475   12.7189 C.ar    1  UNL1        0.0796
     19 C          64.6302   86.3705   14.9155 C.3     1  UNL1        0.1278
     20 C          63.7776   85.3114   15.5493 C.3     1  UNL1        0.0970
     21 N          63.5360   84.0154   14.8338 N.3     1  UNL1       -0.2711
     22 C          62.2730   83.2456   15.0826 C.3     1  UNL1        0.0722
     23 C          62.0314   81.9495   14.3671 C.3     1  UNL1        0.0174
     24 C          63.0528   81.4234   13.4028 C.3     1  UNL1        0.0029
     25 C          64.3159   82.1933   13.1540 C.3     1  UNL1        0.0174
     26 C          64.5575   83.4893   13.8696 C.3     1  UNL1        0.0722
     27 C          59.3221   89.7355    6.2969 C.3     1  UNL1        0.0795
     28 C          58.1020   90.5345    5.9464 C.3     1  UNL1        0.0264
     29 C          58.2146   91.7070    5.0177 C.3     1  UNL1        0.0729
     30 N          59.5473   92.0806    4.4396 N.3     1  UNL1       -0.2689
     31 C          60.7675   91.2815    4.7901 C.3     1  UNL1        0.0729
     32 C          60.6549   90.1090    5.7188 C.3     1  UNL1        0.0264
     33 C          59.6600   93.2532    3.5109 C.3     1  UNL1        0.0992
     34 C          60.2417   93.0713    2.1404 C.ar    1  UNL1       -0.0031
     35 C          61.7142   93.2544    1.9204 C.ar    1  UNL1        0.0178
     36 C          62.2961   93.0726    0.5499 C.ar    1  UNL1        0.0986
     37 N          61.4055   92.7077   -0.6006 N.ar    1  UNL1       -0.2423
     38 C          59.9331   92.5247   -0.3806 C.ar    1  UNL1        0.0986
     39 C          59.3512   92.7065    0.9899 C.ar    1  UNL1        0.0178
@<TRIPOS>BOND
     1     1     2    2
     2     2    27    1
     3    27    28    1
     4    28    29    1
     5    29    30    1
     6    30    33    1
     7    33    34    1
     8    34    35   ar
     9    35    36   ar
    10    36    37   ar
    11    37    38   ar
    12    38    39   ar
    13    30    31    1
    14    31    32    1
    15     2     3   am
    16     3     4    1
    17     4     5    1
    18     5     6    1
    19     6     9    1
    20     9    10   ar
    21    10    11    2
    22    10    12   ar
    23    12    19    1
    24    19    20    1
    25    20    21    1
    26    21    22    1
    27    22    23    1
    28    23    24    1
    29    24    25    1
    30    25    26    1
    31    12    13   ar
    32    13    14   ar
    33    14    15   ar
    34    15    16   ar
    35    16    17   ar
    36    17    18   ar
    37     6     7    1
    38     7     8    1
    39    32    27    1
    40     8     3    1
    41    39    34   ar
    42    18     9   ar
    43    26    21    1
    44    18    13   ar
@<TRIPOS>MOLECULE
*****
 39 44 0 0 0
SMALL
GASTEIGER

@<TRIPOS>ATOM
      1 O          58.3124   87.3991    6.9833 O.2     1  UNL1       -0.2749
      2 C          59.2591   88.5270    7.2690 C.2     1  UNL1        0.2252
      3 N          60.1212   88.4900    8.4960 N.am    1  UNL1       -0.2794
      4 C          60.0366   87.3251    9.4372 C.3     1  UNL1        0.0953
      5 C          60.8987   87.2880   10.6641 C.3     1  UNL1        0.0442
      6 C          61.8455   88.4159   10.9499 C.3     1  UNL1        0.0933
      7 C          61.9300   89.5807   10.0087 C.3     1  UNL1        0.0442
      8 C          61.0679   89.6178    8.7818 C.3     1  UNL1        0.0953
      9 N          62.7076   88.3789   12.1769 N.ar    1  UNL1       -0.2817
     10 C          63.1626   89.5673   12.9709 C.ar    1  UNL1        0.3315
     11 O          62.8355   91.0015   12.6774 O.2     1  UNL1       -0.2463
     12 N          64.0022   89.0697   14.1100 N.ar    1  UNL1       -0.2785
     13 C          64.0661   87.5738   14.0199 C.ar    1  UNL1        0.0797
     14 C          64.7494   86.5453   14.8714 C.ar    1  UNL1        0.0188
     15 C          64.6326   85.0898   14.5282 C.ar    1  UNL1        0.0016
     16 C          63.8325   84.6628   13.3335 C.ar    1  UNL1        0.0016
     17 C          63.1491   85.6913   12.4820 C.ar    1  UNL1        0.0188
     18 C          63.2659   87.1468   12.8252 C.ar    1  UNL1        0.0796
     19 C          64.6622   89.9190   15.1555 C.3     1  UNL1        0.1278
     20 C          64.9283   91.3702   14.8848 C.3     1  UNL1        0.0970
     21 N          66.3282   91.9033   14.9630 N.3     1  UNL1       -0.2711
     22 C          67.3050   91.6096   13.8632 C.3     1  UNL1        0.0722
     23 C          68.7049   92.1427   13.9414 C.3     1  UNL1        0.0174
     24 C          69.1280   92.9694   15.1193 C.3     1  UNL1        0.0029
     25 C          68.1512   93.2632   16.2190 C.3     1  UNL1        0.0174
     26 C          66.7513   92.7301   16.1409 C.3     1  UNL1        0.0722
     27 C          59.3437   89.6919    6.3278 C.3     1  UNL1        0.0795
     28 C          58.1069   90.4654    5.9787 C.3     1  UNL1        0.0264
     29 C          58.1915   91.6303    5.0375 C.3     1  UNL1        0.0729
     30 N          59.5130   92.0217    4.4455 N.3     1  UNL1       -0.2689
     31 C          60.7499   91.2482    4.7946 C.3     1  UNL1        0.0729
     32 C          60.6653   90.0833    5.7358 C.3     1  UNL1        0.0264
     33 C          59.5976   93.1866    3.5043 C.3     1  UNL1        0.0992
     34 C          60.2162   93.0124    2.1490 C.ar    1  UNL1       -0.0031
     35 C          59.3468   92.7416    0.9570 C.ar    1  UNL1        0.0178
     36 C          59.9653   92.5674   -0.3984 C.ar    1  UNL1        0.0986
     37 N          61.4533   92.6641   -0.5618 N.ar    1  UNL1       -0.2423
     38 C          62.3227   92.9349    0.6302 C.ar    1  UNL1        0.0986
     39 C          61.7041   93.1091    1.9856 C.ar    1  UNL1        0.0178
@<TRIPOS>BOND
     1     1     2    2
     2     2    27    1
     3    27    28    1
     4    28    29    1
     5    29    30    1
     6    30    33    1
     7    33    34    1
     8    34    35   ar
     9    35    36   ar
    10    36    37   ar
    11    37    38   ar
    12    38    39   ar
    13    30    31    1
    14    31    32    1
    15     2     3   am
    16     3     4    1
    17     4     5    1
    18     5     6    1
    19     6     9    1
    20     9    10   ar
    21    10    11    2
    22    10    12   ar
    23    12    19    1
    24    19    20    1
    25    20    21    1
    26    21    22    1
    27    22    23    1
    28    23    24    1
    29    24    25    1
    30    25    26    1
    31    12    13   ar
    32    13    14   ar
    33    14    15   ar
    34    15    16   ar
    35    16    17   ar
    36    17    18   ar
    37     6     7    1
    38     7     8    1
    39    32    27    1
    40     8     3    1
    41    39    34   ar
    42    18     9   ar
    43    26    21    1
    44    18    13   ar
@<TRIPOS>MOLECULE
*****
 39 44 0 0 0
SMALL
GASTEIGER

@<TRIPOS>ATOM
      1 O          62.0106   86.2209   18.1148 O.2     1  UNL1       -0.2749
      2 C          62.6980   86.1226   16.7852 C.2     1  UNL1        0.2252
      3 N          63.2542   87.3550   16.1356 N.am    1  UNL1       -0.2794
      4 C          63.1229   88.6855   16.8155 C.3     1  UNL1        0.0953
      5 C          63.6790   89.9179   16.1659 C.3     1  UNL1        0.0442
      6 C          64.3665   89.8197   14.8363 C.3     1  UNL1        0.0933
      7 C          64.4978   88.4891   14.1564 C.3     1  UNL1        0.0442
      8 C          63.9417   87.2568   14.8061 C.3     1  UNL1        0.0953
      9 N          64.9227   91.0520   14.1867 N.ar    1  UNL1       -0.2817
     10 C          64.5066   91.6132   12.8593 C.ar    1  UNL1        0.3315
     11 O          63.4613   91.0407   11.9485 O.2     1  UNL1       -0.2463
     12 N          65.3194   92.8476   12.6027 N.ar    1  UNL1       -0.2785
     13 C          66.2377   93.0492   13.7715 C.ar    1  UNL1        0.0797
     14 C          67.2655   94.0999   14.0707 C.ar    1  UNL1        0.0188
     15 C          68.0481   94.0409   15.3490 C.ar    1  UNL1        0.0016
     16 C          67.8030   92.9311   16.3279 C.ar    1  UNL1        0.0016
     17 C          66.7752   91.8804   16.0287 C.ar    1  UNL1        0.0188
     18 C          65.9926   91.9395   14.7504 C.ar    1  UNL1        0.0796
     19 C          65.2295   93.7261   11.3902 C.3     1  UNL1        0.1278
     20 C          66.2273   94.8275   11.1865 C.3     1  UNL1        0.0970
     21 N          66.3360   95.5036    9.8519 N.3     1  UNL1       -0.2711
     22 C          65.1379   96.1794    9.2538 C.3     1  UNL1        0.0722
     23 C          65.2466   96.8555    7.9192 C.3     1  UNL1        0.0174
     24 C          66.5533   96.8558    7.1828 C.3     1  UNL1        0.0029
     25 C          67.7515   96.1800    7.7809 C.3     1  UNL1        0.0174
     26 C          67.6428   95.5039    9.1155 C.3     1  UNL1        0.0722
     27 C          62.8293   84.7920   16.1053 C.3     1  UNL1        0.0795
     28 C          64.1795   84.1557   15.9567 C.3     1  UNL1        0.0264
     29 C          64.3108   82.8252   15.2768 C.3     1  UNL1        0.0729
     30 N          63.0920   82.1309   14.7454 N.3     1  UNL1       -0.2689
     31 C          61.7417   82.7672   14.8940 C.3     1  UNL1        0.0729
     32 C          61.6104   84.0978   15.5739 C.3     1  UNL1        0.0264
     33 C          63.2233   80.8003   14.0655 C.3     1  UNL1        0.0992
     34 C          63.1994   80.7176   12.5680 C.ar    1  UNL1       -0.0031
     35 C          62.7484   79.4559   11.8937 C.ar    1  UNL1        0.0178
     36 C          62.7245   79.3732   10.3962 C.ar    1  UNL1        0.0986
     37 N          63.1516   80.5521    9.5730 N.ar    1  UNL1       -0.2423
     38 C          63.6026   81.8138   10.2473 C.ar    1  UNL1        0.0986
     39 C          63.6265   81.8966   11.7448 C.ar    1  UNL1        0.0178
@<TRIPOS>BOND
     1     1     2    2
     2     2    27    1
     3    27    28    1
     4    28    29    1
     5    29    30    1
     6    30    33    1
     7    33    34    1
     8    34    35   ar
     9    35    36   ar
    10    36    37   ar
    11    37    38   ar
    12    38    39   ar
    13    30    31    1
    14    31    32    1
    15     2     3   am
    16     3     4    1
    17     4     5    1
    18     5     6    1
    19     6     9    1
    20     9    10   ar
    21    10    11    2
    22    10    12   ar
    23    12    19    1
    24    19    20    1
    25    20    21    1
    26    21    22    1
    27    22    23    1
    28    23    24    1
    29    24    25    1
    30    25    26    1
    31    12    13   ar
    32    13    14   ar
    33    14    15   ar
    34    15    16   ar
    35    16    17   ar
    36    17    18   ar
    37     6     7    1
    38     7     8    1
    39    32    27    1
    40     8     3    1
    41    39    34   ar
    42    18     9   ar
    43    26    21    1
    44    18    13   ar
@<TRIPOS>MOLECULE
*****
 39 44 0 0 0
SMALL
GASTEIGER

@<TRIPOS>ATOM
      1 O          61.6997   86.7264   17.8409 O.2     1  UNL1       -0.2749
      2 C          62.6458   86.6253   16.6813 C.2     1  UNL1        0.2252
      3 N          63.3377   87.8535   16.1687 N.am    1  UNL1       -0.2794
      4 C          63.0835   89.1827   16.8157 C.3     1  UNL1        0.0953
      5 C          63.7755   90.4109   16.3031 C.3     1  UNL1        0.0442
      6 C          64.7217   90.3099   15.1435 C.3     1  UNL1        0.0933
      7 C          64.9759   88.9807   14.4966 C.3     1  UNL1        0.0442
      8 C          64.2839   87.7525   15.0092 C.3     1  UNL1        0.0953
      9 N          65.4137   91.5381   14.6308 N.ar    1  UNL1       -0.2817
     10 C          64.9858   92.3651   13.4549 C.ar    1  UNL1        0.3315
     11 O          63.7908   92.1092   12.5851 O.2     1  UNL1       -0.2463
     12 N          65.9627   93.4930   13.3015 N.ar    1  UNL1       -0.2785
     13 C          66.9943   93.3630   14.3827 C.ar    1  UNL1        0.0797
     14 C          68.1988   94.1887   14.7251 C.ar    1  UNL1        0.0188
     15 C          69.0640   93.8062   15.8892 C.ar    1  UNL1        0.0016
     16 C          68.7246   92.5980   16.7108 C.ar    1  UNL1        0.0016
     17 C          67.5202   91.7722   16.3683 C.ar    1  UNL1        0.0188
     18 C          66.6550   92.1548   15.2042 C.ar    1  UNL1        0.0796
     19 C          65.9162   94.5630   12.2514 C.3     1  UNL1        0.1278
     20 C          65.6515   94.1987   10.8205 C.3     1  UNL1        0.0970
     21 N          66.7435   93.5993    9.9848 N.3     1  UNL1       -0.2711
     22 C          67.2840   94.3519    8.8053 C.3     1  UNL1        0.0722
     23 C          68.3760   93.7526    7.9696 C.3     1  UNL1        0.0174
     24 C          68.9275   92.4007    8.3136 C.3     1  UNL1        0.0029
     25 C          68.3870   91.6481    9.4931 C.3     1  UNL1        0.0174
     26 C          67.2949   92.2474   10.3288 C.3     1  UNL1        0.0722
     27 C          62.9000   85.2961   16.0344 C.3     1  UNL1        0.0795
     28 C          61.7487   84.4643   15.5521 C.3     1  UNL1        0.0264
     29 C          62.0029   83.1351   14.9052 C.3     1  UNL1        0.0729
     30 N          63.4084   82.6377   14.7406 N.3     1  UNL1       -0.2689
     31 C          64.5598   83.4695   15.2229 C.3     1  UNL1        0.0729
     32 C          64.3056   84.7987   15.8699 C.3     1  UNL1        0.0264
     33 C          63.6626   81.3084   14.0936 C.3     1  UNL1        0.0992
     34 C          63.5172   81.1571   12.6084 C.ar    1  UNL1       -0.0031
     35 C          62.8517   79.9387   12.0404 C.ar    1  UNL1        0.0178
     36 C          62.7063   79.7872   10.5552 C.ar    1  UNL1        0.0986
     37 N          63.2263   80.8541    9.6380 N.ar    1  UNL1       -0.2423
     38 C          63.8918   82.0725   10.2060 C.ar    1  UNL1        0.0986
     39 C          64.0372   82.2240   11.6913 C.ar    1  UNL1        0.0178
@<TRIPOS>BOND
     1     1     2    2
     2     2    27    1
     3    27    28    1
     4    28    29    1
     5    29    30    1
     6    30    33    1
     7    33    34    1
     8    34    35   ar
     9    35    36   ar
    10    36    37   ar
    11    37    38   ar
    12    38    39   ar
    13    30    31    1
    14    31    32    1
    15     2     3   am
    16     3     4    1
    17     4     5    1
    18     5     6    1
    19     6     9    1
    20     9    10   ar
    21    10    11    2
    22    10    12   ar
    23    12    19    1
    24    19    20    1
    25    20    21    1
    26    21    22    1
    27    22    23    1
    28    23    24    1
    29    24    25    1
    30    25    26    1
    31    12    13   ar
    32    13    14   ar
    33    14    15   ar
    34    15    16   ar
    35    16    17   ar
    36    17    18   ar
    37     6     7    1
    38     7     8    1
    39    32    27    1
    40     8     3    1
    41    39    34   ar
    42    18     9   ar
    43    26    21    1
    44    18    13   ar
@<TRIPOS>MOLECULE
*****
 39 44 0 0 0
SMALL
GASTEIGER

@<TRIPOS>ATOM
      1 O          73.6330   80.5210   14.7453 O.2     1  UNL1       -0.2749
      2 C          73.1658   79.5487   13.7030 C.2     1  UNL1        0.2252
      3 N          73.0281   78.0941   14.0424 N.am    1  UNL1       -0.2794
      4 C          73.3575   77.6118   15.4240 C.3     1  UNL1        0.0953
      5 C          73.2198   76.1572   15.7634 C.3     1  UNL1        0.0442
      6 C          72.7526   75.1848   14.7211 C.3     1  UNL1        0.0933
      7 C          72.4233   75.6671   13.3395 C.3     1  UNL1        0.0442
      8 C          72.5610   77.1217   13.0001 C.3     1  UNL1        0.0953
      9 N          72.6149   73.7302   15.0605 N.ar    1  UNL1       -0.2817
     10 C          73.0173   72.5791   14.1869 C.ar    1  UNL1        0.3315
     11 O          73.6281   72.6805   12.8207 O.2     1  UNL1       -0.2463
     12 N          72.7017   71.3089   14.9196 N.ar    1  UNL1       -0.2785
     13 C          72.1042   71.6749   16.2459 C.ar    1  UNL1        0.0797
     14 C          71.6021   70.8389   17.3856 C.ar    1  UNL1        0.0188
     15 C          71.0463   71.4993   18.6123 C.ar    1  UNL1        0.0016
     16 C          70.9927   72.9958   18.6993 C.ar    1  UNL1        0.0016
     17 C          71.4948   73.8319   17.5596 C.ar    1  UNL1        0.0188
     18 C          72.0506   73.1714   16.3330 C.ar    1  UNL1        0.0796
     19 C          72.9415   69.9169   14.4146 C.3     1  UNL1        0.1278
     20 C          71.7807   69.0493   14.0273 C.3     1  UNL1        0.0970
     21 N          70.7467   69.5633   13.0699 N.3     1  UNL1       -0.2711
     22 C          71.0801   70.6935   12.1417 C.3     1  UNL1        0.0722
     23 C          70.0462   71.2075   11.1843 C.3     1  UNL1        0.0174
     24 C          68.6788   70.5914   11.1551 C.3     1  UNL1        0.0029
     25 C          68.3454   69.4613   12.0832 C.3     1  UNL1        0.0174
     26 C          69.3794   68.9472   13.0407 C.3     1  UNL1        0.0722
     27 C          72.8365   80.0309   12.3214 C.3     1  UNL1        0.0795
     28 C          72.1443   79.1177   11.3534 C.3     1  UNL1        0.0264
     29 C          71.8149   79.6000    9.9718 C.3     1  UNL1        0.0729
     30 N          72.1777   80.9954    9.5581 N.3     1  UNL1       -0.2689
     31 C          72.8698   81.9087   10.5261 C.3     1  UNL1        0.0729
     32 C          73.1992   81.4265   11.9078 C.3     1  UNL1        0.0264
     33 C          71.8483   81.4777    8.1765 C.3     1  UNL1        0.0992
     34 C          72.4359   80.7877    6.9813 C.ar    1  UNL1       -0.0031
     35 C          72.5015   81.4986    5.6620 C.ar    1  UNL1        0.0178
     36 C          73.0891   80.8086    4.4667 C.ar    1  UNL1        0.0986
     37 N          73.6110   79.4079    4.5907 N.ar    1  UNL1       -0.2423
     38 C          73.5454   78.6970    5.9099 C.ar    1  UNL1        0.0986
     39 C          72.9578   79.3869    7.1052 C.ar    1  UNL1        0.0178
@<TRIPOS>BOND
     1     1     2    2
     2     2    27    1
     3    27    28    1
     4    28    29    1
     5    29    30    1
     6    30    33    1
     7    33    34    1
     8    34    35   ar
     9    35    36   ar
    10    36    37   ar
    11    37    38   ar
    12    38    39   ar
    13    30    31    1
    14    31    32    1
    15     2     3   am
    16     3     4    1
    17     4     5    1
    18     5     6    1
    19     6     9    1
    20     9    10   ar
    21    10    11    2
    22    10    12   ar
    23    12    19    1
    24    19    20    1
    25    20    21    1
    26    21    22    1
    27    22    23    1
    28    23    24    1
    29    24    25    1
    30    25    26    1
    31    12    13   ar
    32    13    14   ar
    33    14    15   ar
    34    15    16   ar
    35    16    17   ar
    36    17    18   ar
    37     6     7    1
    38     7     8    1
    39    32    27    1
    40     8     3    1
    41    39    34   ar
    42    18     9   ar
    43    26    21    1
    44    18    13   ar
@<TRIPOS>MOLECULE
*****
 39 44 0 0 0
SMALL
GASTEIGER

@<TRIPOS>ATOM
      1 O          56.8480   90.1005    6.2171 O.2     1  UNL1       -0.2749
      2 C          58.3462   90.1072    6.2886 C.2     1  UNL1        0.2252
      3 N          59.1419   90.8763    5.2760 N.am    1  UNL1       -0.2794
      4 C          58.4393   91.6386    4.1919 C.3     1  UNL1        0.0953
      5 C          59.2350   92.4077    3.1793 C.3     1  UNL1        0.0442
      6 C          60.7333   92.4145    3.2508 C.3     1  UNL1        0.0933
      7 C          61.4358   91.6523    4.3349 C.3     1  UNL1        0.0442
      8 C          60.6401   90.8832    5.3475 C.3     1  UNL1        0.0953
      9 N          61.5290   93.1836    2.2382 N.ar    1  UNL1       -0.2817
     10 C          62.9429   92.8983    1.8265 C.ar    1  UNL1        0.3315
     11 O          63.8094   91.7939    2.3550 O.2     1  UNL1       -0.2463
     12 N          63.3382   93.9115    0.7933 N.ar    1  UNL1       -0.2785
     13 C          62.1686   94.8229    0.5666 C.ar    1  UNL1        0.0797
     14 C          61.9773   96.0043   -0.3377 C.ar    1  UNL1        0.0188
     15 C          60.6679   96.7358   -0.3489 C.ar    1  UNL1        0.0016
     16 C          59.5497   96.2860    0.5441 C.ar    1  UNL1        0.0016
     17 C          59.7410   95.1046    1.4483 C.ar    1  UNL1        0.0188
     18 C          61.0505   94.3730    1.4595 C.ar    1  UNL1        0.0796
     19 C          64.6693   93.9980    0.1074 C.3     1  UNL1        0.1278
     20 C          64.9182   95.0672   -0.9149 C.3     1  UNL1        0.0970
     21 N          64.5253   94.8434   -2.3451 N.3     1  UNL1       -0.2711
     22 C          64.8978   95.8513   -3.3917 C.3     1  UNL1        0.0722
     23 C          64.5049   95.6275   -4.8219 C.3     1  UNL1        0.0174
     24 C          63.7394   94.3958   -5.2055 C.3     1  UNL1        0.0029
     25 C          63.3668   93.3880   -4.1589 C.3     1  UNL1        0.0174
     26 C          63.7598   93.6118   -2.7287 C.3     1  UNL1        0.0722
     27 C          59.0488   89.3449    7.3727 C.3     1  UNL1        0.0795
     28 C          59.8149   90.0811    8.4315 C.3     1  UNL1        0.0264
     29 C          60.5175   89.3188    9.5156 C.3     1  UNL1        0.0729
     30 N          60.4539   87.8204    9.5409 N.3     1  UNL1       -0.2689
     31 C          59.6877   87.0842    8.4820 C.3     1  UNL1        0.0729
     32 C          58.9852   87.8465    7.3979 C.3     1  UNL1        0.0264
     33 C          61.1565   87.0581   10.6250 C.3     1  UNL1        0.0992
     34 C          62.0425   85.8998   10.2741 C.ar    1  UNL1       -0.0031
     35 C          62.5589   85.7478    8.8740 C.ar    1  UNL1        0.0178
     36 C          63.4450   84.5895    8.5230 C.ar    1  UNL1        0.0986
     37 N          63.8146   83.5831    9.5721 N.ar    1  UNL1       -0.2423
     38 C          63.2982   83.7351   10.9722 C.ar    1  UNL1        0.0986
     39 C          62.4122   84.8934   11.3232 C.ar    1  UNL1        0.0178
@<TRIPOS>BOND
     1     1     2    2
     2     2    27    1
     3    27    28    1
     4    28    29    1
     5    29    30    1
     6    30    33    1
     7    33    34    1
     8    34    35   ar
     9    35    36   ar
    10    36    37   ar
    11    37    38   ar
    12    38    39   ar
    13    30    31    1
    14    31    32    1
    15     2     3   am
    16     3     4    1
    17     4     5    1
    18     5     6    1
    19     6     9    1
    20     9    10   ar
    21    10    11    2
    22    10    12   ar
    23    12    19    1
    24    19    20    1
    25    20    21    1
    26    21    22    1
    27    22    23    1
    28    23    24    1
    29    24    25    1
    30    25    26    1
    31    12    13   ar
    32    13    14   ar
    33    14    15   ar
    34    15    16   ar
    35    16    17   ar
    36    17    18   ar
    37     6     7    1
    38     7     8    1
    39    32    27    1
    40     8     3    1
    41    39    34   ar
    42    18     9   ar
    43    26    21    1
    44    18    13   ar
@<TRIPOS>MOLECULE
*****
 39 44 0 0 0
SMALL
GASTEIGER

@<TRIPOS>ATOM
      1 O          57.0249   90.1090    6.4443 O.2     1  UNL1       -0.2749
      2 C          58.5101   89.9586    6.2986 C.2     1  UNL1        0.2252
      3 N          59.2511   90.7793    5.2850 N.am    1  UNL1       -0.2794
      4 C          58.5068   91.7503    4.4171 C.3     1  UNL1        0.0953
      5 C          59.2478   92.5710    3.4035 C.3     1  UNL1        0.0442
      6 C          60.7332   92.4206    3.2577 C.3     1  UNL1        0.0933
      7 C          61.4774   91.4497    4.1255 C.3     1  UNL1        0.0442
      8 C          60.7364   90.6290    5.1392 C.3     1  UNL1        0.0953
      9 N          61.4742   93.2413    2.2440 N.ar    1  UNL1       -0.2817
     10 C          62.9583   93.2442    2.0266 C.ar    1  UNL1        0.3315
     11 O          63.9621   92.4270    2.7847 O.2     1  UNL1       -0.2463
     12 N          63.2624   94.2078    0.9181 N.ar    1  UNL1       -0.2785
     13 C          61.9663   94.8005    0.4504 C.ar    1  UNL1        0.0797
     14 C          61.6496   95.8068   -0.6159 C.ar    1  UNL1        0.0188
     15 C          60.2277   96.2158   -0.8626 C.ar    1  UNL1        0.0016
     16 C          59.1225   95.6185   -0.0431 C.ar    1  UNL1        0.0016
     17 C          59.4392   94.6121    1.0231 C.ar    1  UNL1        0.0188
     18 C          60.8610   94.2031    1.2699 C.ar    1  UNL1        0.0796
     19 C          64.6238   94.5235    0.3729 C.3     1  UNL1        0.1278
     20 C          64.7723   95.5053   -0.7515 C.3     1  UNL1        0.0970
     21 N          64.6228   95.0470   -2.1719 N.3     1  UNL1       -0.2711
     22 C          64.0408   93.6964   -2.4669 C.3     1  UNL1        0.0722
     23 C          63.8913   93.2381   -3.8873 C.3     1  UNL1        0.0174
     24 C          64.3237   94.1305   -5.0127 C.3     1  UNL1        0.0029
     25 C          64.9056   95.4812   -4.7178 C.3     1  UNL1        0.0174
     26 C          65.0552   95.9395   -3.2974 C.3     1  UNL1        0.0722
     27 C          59.2544   88.9877    7.1665 C.3     1  UNL1        0.0795
     28 C          59.1524   87.5147    6.9022 C.3     1  UNL1        0.0264
     29 C          59.8967   86.5437    7.7701 C.3     1  UNL1        0.0729
     30 N          60.7431   87.0457    8.9021 N.3     1  UNL1       -0.2689
     31 C          60.8451   88.5188    9.1664 C.3     1  UNL1        0.0729
     32 C          60.1008   89.4898    8.2985 C.3     1  UNL1        0.0264
     33 C          61.4874   86.0747    9.7700 C.3     1  UNL1        0.0992
     34 C          62.2158   86.5623   10.9872 C.ar    1  UNL1       -0.0031
     35 C          62.6794   85.5842   12.0257 C.ar    1  UNL1        0.0178
     36 C          63.4078   86.0717   13.2429 C.ar    1  UNL1        0.0986
     37 N          63.6726   87.5373   13.4217 N.ar    1  UNL1       -0.2423
     38 C          63.2090   88.5154   12.3832 C.ar    1  UNL1        0.0986
     39 C          62.4806   88.0279   11.1660 C.ar    1  UNL1        0.0178
@<TRIPOS>BOND
     1     1     2    2
     2     2    27    1
     3    27    28    1
     4    28    29    1
     5    29    30    1
     6    30    33    1
     7    33    34    1
     8    34    35   ar
     9    35    36   ar
    10    36    37   ar
    11    37    38   ar
    12    38    39   ar
    13    30    31    1
    14    31    32    1
    15     2     3   am
    16     3     4    1
    17     4     5    1
    18     5     6    1
    19     6     9    1
    20     9    10   ar
    21    10    11    2
    22    10    12   ar
    23    12    19    1
    24    19    20    1
    25    20    21    1
    26    21    22    1
    27    22    23    1
    28    23    24    1
    29    24    25    1
    30    25    26    1
    31    12    13   ar
    32    13    14   ar
    33    14    15   ar
    34    15    16   ar
    35    16    17   ar
    36    17    18   ar
    37     6     7    1
    38     7     8    1
    39    32    27    1
    40     8     3    1
    41    39    34   ar
    42    18     9   ar
    43    26    21    1
    44    18    13   ar
@<TRIPOS>MOLECULE
*****
 39 44 0 0 0
SMALL
GASTEIGER

@<TRIPOS>ATOM
      1 O          62.4238   86.1642   18.1875 O.2     1  UNL1       -0.2749
      2 C          62.8950   86.0291   16.7699 C.2     1  UNL1        0.2252
      3 N          63.3549   87.2403   16.0138 N.am    1  UNL1       -0.2794
      4 C          63.3435   88.5865   16.6754 C.3     1  UNL1        0.0953
      5 C          63.8033   89.7977   15.9194 C.3     1  UNL1        0.0442
      6 C          64.2746   89.6627   14.5017 C.3     1  UNL1        0.0933
      7 C          64.2860   88.3165   13.8402 C.3     1  UNL1        0.0442
      8 C          63.8261   87.1054   14.5962 C.3     1  UNL1        0.0953
      9 N          64.7344   90.8739   13.7456 N.ar    1  UNL1       -0.2817
     10 C          65.7059   91.9048   14.2389 C.ar    1  UNL1        0.3315
     11 O          66.3882   91.9056   15.5747 O.2     1  UNL1       -0.2463
     12 N          65.8754   92.9348   13.1617 N.ar    1  UNL1       -0.2785
     13 C          65.0086   92.5405   12.0027 C.ar    1  UNL1        0.0797
     14 C          64.7704   93.1766   10.6654 C.ar    1  UNL1        0.0188
     15 C          63.8270   92.5391    9.6890 C.ar    1  UNL1        0.0016
     16 C          63.1218   91.2653   10.0499 C.ar    1  UNL1        0.0016
     17 C          63.3600   90.6291   11.3872 C.ar    1  UNL1        0.0188
     18 C          64.3035   91.2667   12.3636 C.ar    1  UNL1        0.0796
     19 C          66.7568   94.1465   13.2312 C.3     1  UNL1        0.1278
     20 C          66.3791   95.3926   12.4863 C.3     1  UNL1        0.0970
     21 N          66.7009   95.5206   11.0269 N.3     1  UNL1       -0.2711
     22 C          66.2145   96.7100   10.2532 C.3     1  UNL1        0.0722
     23 C          66.5363   96.8381    8.7937 C.3     1  UNL1        0.0174
     24 C          67.3446   95.7767    8.1080 C.3     1  UNL1        0.0029
     25 C          67.8310   94.5873    8.8817 C.3     1  UNL1        0.0174
     26 C          67.5091   94.4592   10.3412 C.3     1  UNL1        0.0722
     27 C          62.9065   84.6830   16.1083 C.3     1  UNL1        0.0795
     28 C          61.6370   84.1106   15.5507 C.3     1  UNL1        0.0264
     29 C          61.6485   82.7644   14.8891 C.3     1  UNL1        0.0729
     30 N          62.9293   81.9907   14.7851 N.3     1  UNL1       -0.2689
     31 C          64.1988   82.5631   15.3427 C.3     1  UNL1        0.0729
     32 C          64.1873   83.9093   16.0043 C.3     1  UNL1        0.0264
     33 C          62.9407   80.6445   14.1235 C.3     1  UNL1        0.0992
     34 C          62.9915   80.5443   12.6277 C.ar    1  UNL1       -0.0031
     35 C          63.3565   81.7460   11.8076 C.ar    1  UNL1        0.0178
     36 C          63.4074   81.6459   10.3118 C.ar    1  UNL1        0.0986
     37 N          63.0932   80.3441    9.6362 N.ar    1  UNL1       -0.2423
     38 C          62.7281   79.1423   10.4563 C.ar    1  UNL1        0.0986
     39 C          62.6773   79.2425   11.9521 C.ar    1  UNL1        0.0178
@<TRIPOS>BOND
     1     1     2    2
     2     2    27    1
     3    27    28    1
     4    28    29    1
     5    29    30    1
     6    30    33    1
     7    33    34    1
     8    34    35   ar
     9    35    36   ar
    10    36    37   ar
    11    37    38   ar
    12    38    39   ar
    13    30    31    1
    14    31    32    1
    15     2     3   am
    16     3     4    1
    17     4     5    1
    18     5     6    1
    19     6     9    1
    20     9    10   ar
    21    10    11    2
    22    10    12   ar
    23    12    19    1
    24    19    20    1
    25    20    21    1
    26    21    22    1
    27    22    23    1
    28    23    24    1
    29    24    25    1
    30    25    26    1
    31    12    13   ar
    32    13    14   ar
    33    14    15   ar
    34    15    16   ar
    35    16    17   ar
    36    17    18   ar
    37     6     7    1
    38     7     8    1
    39    32    27    1
    40     8     3    1
    41    39    34   ar
    42    18     9   ar
    43    26    21    1
    44    18    13   ar
