@<TRIPOS>MOLECULE
*****
 19 21 0 0 0
SMALL
GASTEIGER

@<TRIPOS>ATOM
      1 C          63.5221   83.2250   13.6979 C.ar    1  UNL1        0.1388
      2 C          64.4487   82.4146   12.8409 C.ar    1  UNL1        0.0369
      3 C          64.5114   82.6613   11.3627 C.ar    1  UNL1        0.0032
      4 C          63.6475   83.7185   10.7415 C.ar    1  UNL1        0.0024
      5 C          63.7102   83.9653    9.2632 C.ar    1  UNL1        0.0001
      6 C          62.8463   85.0225    8.6420 C.ar    1  UNL1        0.0023
      7 C          61.9196   85.8330    9.4990 C.ar    1  UNL1        0.0290
      8 C          61.8569   85.5862   10.9773 C.ar    1  UNL1        0.1402
      9 F          60.9303   86.3967   11.8343 F       1  UNL1       -0.2042
     10 C          62.7209   84.5290   11.5985 C.ar    1  UNL1        0.0305
     11 C          62.6582   84.2822   13.0767 C.ar    1  UNL1        0.0391
     12 C          61.0557   86.8902    8.8778 C.ar    1  UNL1        0.0213
     13 C          60.0308   86.5127    7.8496 C.ar    1  UNL1        0.0032
     14 C          59.1669   87.5698    7.2284 C.ar    1  UNL1        0.0207
     15 C          59.3278   89.0046    7.6353 C.ar    1  UNL1        0.0989
     16 N          60.3526   89.3821    8.6635 N.ar    1  UNL1       -0.2423
     17 C          61.2166   88.3249    9.2848 C.ar    1  UNL1        0.0989
     18 C          62.7633   83.9600   16.0715 C.3     1  UNL1        0.2525
     19 O          63.4594   82.9783   15.1762 O.3     1  UNL1       -0.4714
@<TRIPOS>BOND
     1    18    19    1
     2    19     1    1
     3     1     2   ar
     4     2     3   ar
     5     3     4   ar
     6     4     5   ar
     7     5     6   ar
     8     6     7   ar
     9     7    12    1
    10    12    13   ar
    11    13    14   ar
    12    14    15   ar
    13    15    16   ar
    14    16    17   ar
    15     7     8   ar
    16     8     9    1
    17     8    10   ar
    18    10    11   ar
    19    11     1   ar
    20    10     4   ar
    21    17    12   ar
@<TRIPOS>MOLECULE
*****
 19 21 0 0 0
SMALL
GASTEIGER

@<TRIPOS>ATOM
      1 C          66.1792   93.8548   11.8747 C.ar    1  UNL1        0.1388
      2 C          66.5078   93.4297   13.2751 C.ar    1  UNL1        0.0369
      3 C          65.8627   92.2078   13.8589 C.ar    1  UNL1        0.0032
      4 C          64.8890   91.4110   13.0422 C.ar    1  UNL1        0.0024
      5 C          64.2439   90.1891   13.6259 C.ar    1  UNL1        0.0001
      6 C          63.2702   89.3923   12.8092 C.ar    1  UNL1        0.0023
      7 C          62.9416   89.8174   11.4087 C.ar    1  UNL1        0.0290
      8 C          63.5867   91.0393   10.8249 C.ar    1  UNL1        0.1402
      9 F          63.2582   91.4644    9.4245 F       1  UNL1       -0.2042
     10 C          64.5604   91.8361   11.6417 C.ar    1  UNL1        0.0305
     11 C          65.2055   93.0580   11.0580 C.ar    1  UNL1        0.0391
     12 C          61.9680   89.0206   10.5920 C.ar    1  UNL1        0.0213
     13 C          62.1782   87.5477   10.4009 C.ar    1  UNL1        0.0032
     14 C          61.2045   86.7508    9.5842 C.ar    1  UNL1        0.0207
     15 C          60.0206   87.4269    8.9586 C.ar    1  UNL1        0.0989
     16 N          59.8104   88.8997    9.1497 N.ar    1  UNL1       -0.2423
     17 C          60.7841   89.6966    9.9664 C.ar    1  UNL1        0.0989
     18 C          67.1823   95.1128    9.8348 C.3     1  UNL1        0.2525
     19 O          66.8243   95.0768   11.2909 O.3     1  UNL1       -0.4714
@<TRIPOS>BOND
     1    18    19    1
     2    19     1    1
     3     1     2   ar
     4     2     3   ar
     5     3     4   ar
     6     4     5   ar
     7     5     6   ar
     8     6     7   ar
     9     7    12    1
    10    12    13   ar
    11    13    14   ar
    12    14    15   ar
    13    15    16   ar
    14    16    17   ar
    15     7     8   ar
    16     8     9    1
    17     8    10   ar
    18    10    11   ar
    19    11     1   ar
    20    10     4   ar
    21    17    12   ar
@<TRIPOS>MOLECULE
*****
 19 21 0 0 0
SMALL
GASTEIGER

@<TRIPOS>ATOM
      1 C          63.5833   90.5050   12.4986 C.ar    1  UNL1        0.1388
      2 C          62.8820   90.7473   11.1951 C.ar    1  UNL1        0.0369
      3 C          62.2963   89.5956   10.4331 C.ar    1  UNL1        0.0032
      4 C          62.4120   88.2017   10.9747 C.ar    1  UNL1        0.0024
      5 C          61.8263   87.0500   10.2127 C.ar    1  UNL1        0.0001
      6 C          61.9419   85.6560   10.7543 C.ar    1  UNL1        0.0023
      7 C          62.6433   85.4136   12.0580 C.ar    1  UNL1        0.0290
      8 C          63.2290   86.5653   12.8199 C.ar    1  UNL1        0.1402
      9 F          63.9304   86.3230   14.1235 F       1  UNL1       -0.2042
     10 C          63.1133   87.9594   12.2783 C.ar    1  UNL1        0.0305
     11 C          63.6990   89.1110   13.0402 C.ar    1  UNL1        0.0391
     12 C          62.7590   84.0196   12.5996 C.ar    1  UNL1        0.0213
     13 C          63.0256   82.8733   11.6695 C.ar    1  UNL1        0.0032
     14 C          63.1413   81.4794   12.2111 C.ar    1  UNL1        0.0207
     15 C          62.9904   81.2316   13.6827 C.ar    1  UNL1        0.0989
     16 N          62.7238   82.3778   14.6128 N.ar    1  UNL1       -0.2423
     17 C          62.6082   83.7719   14.0712 C.ar    1  UNL1        0.0989
     18 C          65.3567   92.3916   12.7134 C.3     1  UNL1        0.2525
     19 O          64.1690   91.6567   13.2606 O.3     1  UNL1       -0.4714
@<TRIPOS>BOND
     1    18    19    1
     2    19     1    1
     3     1     2   ar
     4     2     3   ar
     5     3     4   ar
     6     4     5   ar
     7     5     6   ar
     8     6     7   ar
     9     7    12    1
    10    12    13   ar
    11    13    14   ar
    12    14    15   ar
    13    15    16   ar
    14    16    17   ar
    15     7     8   ar
    16     8     9    1
    17     8    10   ar
    18    10    11   ar
    19    11     1   ar
    20    10     4   ar
    21    17    12   ar
@<TRIPOS>MOLECULE
*****
 19 21 0 0 0
SMALL
GASTEIGER

@<TRIPOS>ATOM
      1 C          61.7059   88.7290   11.2510 C.ar    1  UNL1        0.1388
      2 C          61.6240   89.5610   10.0056 C.ar    1  UNL1        0.0369
      3 C          62.5273   90.7462    9.8347 C.ar    1  UNL1        0.0032
      4 C          63.5125   91.0995   10.9091 C.ar    1  UNL1        0.0024
      5 C          64.4159   92.2847   10.7382 C.ar    1  UNL1        0.0001
      6 C          65.4011   92.6380   11.8127 C.ar    1  UNL1        0.0023
      7 C          65.4830   91.8059   13.0581 C.ar    1  UNL1        0.0290
      8 C          64.5797   90.6207   13.2291 C.ar    1  UNL1        0.1402
      9 F          64.6616   89.7887   14.4744 F       1  UNL1       -0.2042
     10 C          63.5944   90.2675   12.1545 C.ar    1  UNL1        0.0305
     11 C          62.6911   89.0822   12.3254 C.ar    1  UNL1        0.0391
     12 C          66.4682   92.1592   14.1326 C.ar    1  UNL1        0.0213
     13 C          67.9404   92.0543   13.8643 C.ar    1  UNL1        0.0032
     14 C          68.9256   92.4076   14.9387 C.ar    1  UNL1        0.0207
     15 C          68.4388   92.8657   16.2815 C.ar    1  UNL1        0.0989
     16 N          66.9667   92.9706   16.5499 N.ar    1  UNL1       -0.2423
     17 C          65.9814   92.6173   15.4754 C.ar    1  UNL1        0.0989
     18 C          61.2628   86.1820   10.9934 C.3     1  UNL1        0.2525
     19 O          60.8026   87.5438   11.4219 O.3     1  UNL1       -0.4714
@<TRIPOS>BOND
     1    18    19    1
     2    19     1    1
     3     1     2   ar
     4     2     3   ar
     5     3     4   ar
     6     4     5   ar
     7     5     6   ar
     8     6     7   ar
     9     7    12    1
    10    12    13   ar
    11    13    14   ar
    12    14    15   ar
    13    15    16   ar
    14    16    17   ar
    15     7     8   ar
    16     8     9    1
    17     8    10   ar
    18    10    11   ar
    19    11     1   ar
    20    10     4   ar
    21    17    12   ar
@<TRIPOS>MOLECULE
*****
 19 21 0 0 0
SMALL
GASTEIGER

@<TRIPOS>ATOM
      1 C          61.4846   87.2694    9.8507 C.ar    1  UNL1        0.1388
      2 C          61.7209   85.8742   10.3481 C.ar    1  UNL1        0.0369
      3 C          62.4899   85.6502   11.6163 C.ar    1  UNL1        0.0032
      4 C          63.0227   86.8215   12.3871 C.ar    1  UNL1        0.0024
      5 C          63.7918   86.5975   13.6554 C.ar    1  UNL1        0.0001
      6 C          64.3246   87.7688   14.4262 C.ar    1  UNL1        0.0023
      7 C          64.0883   89.1641   13.9288 C.ar    1  UNL1        0.0290
      8 C          63.3193   89.3881   12.6606 C.ar    1  UNL1        0.1402
      9 F          63.0830   90.7833   12.1632 F       1  UNL1       -0.2042
     10 C          62.7865   88.2167   11.8897 C.ar    1  UNL1        0.0305
     11 C          62.0174   88.4407   10.6215 C.ar    1  UNL1        0.0391
     12 C          64.6211   90.3354   14.6996 C.ar    1  UNL1        0.0213
     13 C          65.9326   90.9531   14.3141 C.ar    1  UNL1        0.0032
     14 C          66.4654   92.1243   15.0849 C.ar    1  UNL1        0.0207
     15 C          65.6868   92.6780   16.2413 C.ar    1  UNL1        0.0989
     16 N          64.3754   92.0603   16.6269 N.ar    1  UNL1       -0.2423
     17 C          63.8426   90.8890   15.8560 C.ar    1  UNL1        0.0989
     18 C          60.0414   86.3400    7.9005 C.3     1  UNL1        0.2525
     19 O          60.7156   87.4934    8.5825 O.3     1  UNL1       -0.4714
@<TRIPOS>BOND
     1    18    19    1
     2    19     1    1
     3     1     2   ar
     4     2     3   ar
     5     3     4   ar
     6     4     5   ar
     7     5     6   ar
     8     6     7   ar
     9     7    12    1
    10    12    13   ar
    11    13    14   ar
    12    14    15   ar
    13    15    16   ar
    14    16    17   ar
    15     7     8   ar
    16     8     9    1
    17     8    10   ar
    18    10    11   ar
    19    11     1   ar
    20    10     4   ar
    21    17    12   ar
@<TRIPOS>MOLECULE
*****
 19 21 0 0 0
SMALL
GASTEIGER

@<TRIPOS>ATOM
      1 C          59.3321   88.5231    7.4813 C.ar    1  UNL1        0.1388
      2 C          59.3270   87.0253    7.5611 C.ar    1  UNL1        0.0369
      3 C          60.1349   86.3277    8.6150 C.ar    1  UNL1        0.0032
      4 C          60.9478   87.1279    9.5891 C.ar    1  UNL1        0.0024
      5 C          61.7557   86.4303   10.6430 C.ar    1  UNL1        0.0001
      6 C          62.5686   87.2305   11.6170 C.ar    1  UNL1        0.0023
      7 C          62.5737   88.7284   11.5372 C.ar    1  UNL1        0.0290
      8 C          61.7658   89.4260   10.4833 C.ar    1  UNL1        0.1402
      9 F          61.7709   90.9239   10.4034 F       1  UNL1       -0.2042
     10 C          60.9529   88.6257    9.5092 C.ar    1  UNL1        0.0305
     11 C          60.1450   89.3234    8.4553 C.ar    1  UNL1        0.0391
     12 C          63.3866   89.5286   12.5112 C.ar    1  UNL1        0.0213
     13 C          63.9482   88.8716   13.7372 C.ar    1  UNL1        0.0032
     14 C          64.7611   89.6718   14.7113 C.ar    1  UNL1        0.0207
     15 C          65.0124   91.1290   14.4594 C.ar    1  UNL1        0.0989
     16 N          64.4509   91.7860   13.2334 N.ar    1  UNL1       -0.2423
     17 C          63.6379   90.9858   12.2593 C.ar    1  UNL1        0.0989
     18 C          59.0985   90.4007    5.7008 C.3     1  UNL1        0.2525
     19 O          58.5242   89.2208    6.4274 O.3     1  UNL1       -0.4714
@<TRIPOS>BOND
     1    18    19    1
     2    19     1    1
     3     1     2   ar
     4     2     3   ar
     5     3     4   ar
     6     4     5   ar
     7     5     6   ar
     8     6     7   ar
     9     7    12    1
    10    12    13   ar
    11    13    14   ar
    12    14    15   ar
    13    15    16   ar
    14    16    17   ar
    15     7     8   ar
    16     8     9    1
    17     8    10   ar
    18    10    11   ar
    19    11     1   ar
    20    10     4   ar
    21    17    12   ar
@<TRIPOS>MOLECULE
*****
 19 21 0 0 0
SMALL
GASTEIGER

@<TRIPOS>ATOM
      1 C          65.0333   91.9614   13.1443 C.ar    1  UNL1        0.1388
      2 C          65.3250   91.0012   14.2591 C.ar    1  UNL1        0.0369
      3 C          64.7454   89.6181   14.2286 C.ar    1  UNL1        0.0032
      4 C          63.8741   89.1951   13.0832 C.ar    1  UNL1        0.0024
      5 C          63.2945   87.8120   13.0526 C.ar    1  UNL1        0.0001
      6 C          62.4233   87.3890   11.9072 C.ar    1  UNL1        0.0023
      7 C          62.1316   88.3492   10.7923 C.ar    1  UNL1        0.0290
      8 C          62.7112   89.7324   10.8229 C.ar    1  UNL1        0.1402
      9 F          62.4195   90.6926    9.7080 F       1  UNL1       -0.2042
     10 C          63.5825   90.1553   11.9683 C.ar    1  UNL1        0.0305
     11 C          64.1621   91.5385   11.9989 C.ar    1  UNL1        0.0391
     12 C          61.2603   87.9263    9.6469 C.ar    1  UNL1        0.0213
     13 C          61.4138   86.5572    9.0535 C.ar    1  UNL1        0.0032
     14 C          60.5426   86.1342    7.9081 C.ar    1  UNL1        0.0207
     15 C          59.5178   87.0803    7.3561 C.ar    1  UNL1        0.0989
     16 N          59.3642   88.4493    7.9494 N.ar    1  UNL1       -0.2423
     17 C          60.2355   88.8723    9.0949 C.ar    1  UNL1        0.0989
     18 C          66.6241   93.7111   14.2203 C.3     1  UNL1        0.2525
     19 O          65.6129   93.3446   13.1748 O.3     1  UNL1       -0.4714
@<TRIPOS>BOND
     1    18    19    1
     2    19     1    1
     3     1     2   ar
     4     2     3   ar
     5     3     4   ar
     6     4     5   ar
     7     5     6   ar
     8     6     7   ar
     9     7    12    1
    10    12    13   ar
    11    13    14   ar
    12    14    15   ar
    13    15    16   ar
    14    16    17   ar
    15     7     8   ar
    16     8     9    1
    17     8    10   ar
    18    10    11   ar
    19    11     1   ar
    20    10     4   ar
    21    17    12   ar
@<TRIPOS>MOLECULE
*****
 19 21 0 0 0
SMALL
GASTEIGER

@<TRIPOS>ATOM
      1 C          60.8853   88.8139    9.3507 C.ar    1  UNL1        0.1388
      2 C          60.8504   87.4579    9.9909 C.ar    1  UNL1        0.0369
      3 C          61.6844   87.1807   11.2064 C.ar    1  UNL1        0.0032
      4 C          62.5533   88.2595   11.7819 C.ar    1  UNL1        0.0024
      5 C          63.3872   87.9824   12.9974 C.ar    1  UNL1        0.0001
      6 C          64.2561   89.0612   13.5729 C.ar    1  UNL1        0.0023
      7 C          64.2909   90.4174   12.9327 C.ar    1  UNL1        0.0290
      8 C          63.4570   90.6946   11.7171 C.ar    1  UNL1        0.1402
      9 F          63.4918   92.0506   11.0770 F       1  UNL1       -0.2042
     10 C          62.5881   89.6156   11.1417 C.ar    1  UNL1        0.0305
     11 C          61.7541   89.8928    9.9261 C.ar    1  UNL1        0.0391
     12 C          65.1598   91.4962   13.5081 C.ar    1  UNL1        0.0213
     13 C          65.4125   91.5473   14.9858 C.ar    1  UNL1        0.0032
     14 C          66.2814   92.6262   15.5613 C.ar    1  UNL1        0.0207
     15 C          66.8975   93.6540   14.6590 C.ar    1  UNL1        0.0989
     16 N          66.6447   93.6029   13.1814 N.ar    1  UNL1       -0.2423
     17 C          65.7759   92.5240   12.6059 C.ar    1  UNL1        0.0989
     18 C          59.1558   88.0232    7.5805 C.3     1  UNL1        0.2525
     19 O          60.0513   89.0911    8.1351 O.3     1  UNL1       -0.4714
@<TRIPOS>BOND
     1    18    19    1
     2    19     1    1
     3     1     2   ar
     4     2     3   ar
     5     3     4   ar
     6     4     5   ar
     7     5     6   ar
     8     6     7   ar
     9     7    12    1
    10    12    13   ar
    11    13    14   ar
    12    14    15   ar
    13    15    16   ar
    14    16    17   ar
    15     7     8   ar
    16     8     9    1
    17     8    10   ar
    18    10    11   ar
    19    11     1   ar
    20    10     4   ar
    21    17    12   ar
@<TRIPOS>MOLECULE
*****
 19 21 0 0 0
SMALL
GASTEIGER

@<TRIPOS>ATOM
      1 C          63.3990   81.9794   12.2543 C.ar    1  UNL1        0.1388
      2 C          63.9744   81.5752   10.9293 C.ar    1  UNL1        0.0369
      3 C          63.9532   82.5362    9.7778 C.ar    1  UNL1        0.0032
      4 C          63.3567   83.9015    9.9513 C.ar    1  UNL1        0.0024
      5 C          63.3355   84.8626    8.7998 C.ar    1  UNL1        0.0001
      6 C          62.7390   86.2279    8.9733 C.ar    1  UNL1        0.0023
      7 C          62.1636   86.6321   10.2983 C.ar    1  UNL1        0.0290
      8 C          62.1848   85.6711   11.4498 C.ar    1  UNL1        0.1402
      9 F          61.6095   86.0753   12.7748 F       1  UNL1       -0.2042
     10 C          62.7813   84.3057   11.2763 C.ar    1  UNL1        0.0305
     11 C          62.8025   83.3447   12.4277 C.ar    1  UNL1        0.0391
     12 C          61.5671   87.9974   10.4718 C.ar    1  UNL1        0.0213
     13 C          62.4212   89.2174   10.2925 C.ar    1  UNL1        0.0032
     14 C          61.8247   90.5827   10.4660 C.ar    1  UNL1        0.0207
     15 C          60.3741   90.7281   10.8188 C.ar    1  UNL1        0.0989
     16 N          59.5199   89.5082   10.9981 N.ar    1  UNL1       -0.2423
     17 C          60.1164   88.1428   10.8246 C.ar    1  UNL1        0.0989
     18 C          62.3311   79.9972   13.5506 C.3     1  UNL1        0.2525
     19 O          63.4202   81.0183   13.4057 O.3     1  UNL1       -0.4714
@<TRIPOS>BOND
     1    18    19    1
     2    19     1    1
     3     1     2   ar
     4     2     3   ar
     5     3     4   ar
     6     4     5   ar
     7     5     6   ar
     8     6     7   ar
     9     7    12    1
    10    12    13   ar
    11    13    14   ar
    12    14    15   ar
    13    15    16   ar
    14    16    17   ar
    15     7     8   ar
    16     8     9    1
    17     8    10   ar
    18    10    11   ar
    19    11     1   ar
    20    10     4   ar
    21    17    12   ar
