@<TRIPOS>MOLECULE
*****
 30 34 0 0 0
SMALL
GASTEIGER

@<TRIPOS>ATOM
      1 O          58.6177   92.3639    4.1598 O.2     1  UNL1       -0.2526
      2 C          60.0503   91.9329    4.0500 C.2     1  UNL1        0.3039
      3 N          60.5693   90.8263    4.9194 N.am    1  UNL1       -0.2901
      4 N          60.9637   92.6086    3.0707 N.am    1  UNL1       -0.2642
      5 C          60.4446   93.7152    2.2012 C.3     1  UNL1        0.0954
      6 C          61.3580   94.3909    1.2219 C.3     1  UNL1        0.0309
      7 C          62.7906   93.9599    1.1120 C.3     1  UNL1        0.0827
      8 C          63.3097   92.8533    1.9815 C.3     1  UNL1        0.0309
      9 C          62.3962   92.1776    2.9608 C.3     1  UNL1        0.0954
     10 H          61.5095   90.5435    4.8473 H       1  UNL1        0.1509
     11 C          63.7041   94.6355    0.1327 C.ar    1  UNL1        0.2362
     12 N          63.6542   94.4968   -1.3600 N.ar    1  UNL1       -0.1895
     13 C          64.7471   95.3441   -1.9411 C.ar    1  UNL1        0.2210
     14 N          65.4725   96.0065   -0.8075 N.ar    1  UNL1       -0.0544
     15 O          64.8279   95.5686    0.4741 O.2     1  UNL1       -0.3370
     16 C          65.0597   95.5013   -3.3997 C.ar    1  UNL1        0.1203
     17 C          65.8270   96.6984   -3.8775 C.ar    1  UNL1        0.0224
     18 C          66.1397   96.8558   -5.3361 C.ar    1  UNL1        0.0032
     19 C          65.6850   95.8160   -6.3169 C.ar    1  UNL1        0.0207
     20 C          64.9177   94.6189   -5.8392 C.ar    1  UNL1        0.0989
     21 N          64.6051   94.4616   -4.3805 N.ar    1  UNL1       -0.2406
     22 C          59.6559   90.1507    5.8988 C.3     1  UNL1        0.0774
     23 C          58.2701   89.8098    6.3606 C.3     1  UNL1        0.0259
     24 C          59.4595   89.3213    7.1331 C.3     1  UNL1        0.0420
     25 C          60.0329   88.5604    8.2917 C.ar    1  UNL1       -0.0208
     26 C          60.3987   89.2814    9.5551 C.ar    1  UNL1       -0.0042
     27 C          60.9720   88.5205   10.7137 C.ar    1  UNL1       -0.0003
     28 C          61.1796   87.0387   10.6088 C.ar    1  UNL1       -0.0000
     29 C          60.8138   86.3177    9.3454 C.ar    1  UNL1       -0.0003
     30 C          60.2405   87.0786    8.1868 C.ar    1  UNL1       -0.0042
@<TRIPOS>BOND
     1     1     2    2
     2     2     3   am
     3     3    22    1
     4    22    23    1
     5    23    24    1
     6    24    25    1
     7    25    26   ar
     8    26    27   ar
     9    27    28   ar
    10    28    29   ar
    11    29    30   ar
    12     2     4   am
    13     4     5    1
    14     5     6    1
    15     6     7    1
    16     7    11    1
    17    11    12   ar
    18    12    13   ar
    19    13    16    1
    20    16    17   ar
    21    17    18   ar
    22    18    19   ar
    23    19    20   ar
    24    20    21   ar
    25    13    14   ar
    26    14    15   ar
    27     7     8    1
    28     8     9    1
    29    24    22    1
    30    30    25   ar
    31     9     4    1
    32    15    11   ar
    33    21    16   ar
    34     3    10    1
@<TRIPOS>MOLECULE
*****
 30 34 0 0 0
SMALL
GASTEIGER

@<TRIPOS>ATOM
      1 O          61.2589   85.1629   10.3549 O.2     1  UNL1       -0.2526
      2 C          61.5145   86.6401   10.4073 C.2     1  UNL1        0.3039
      3 N          62.3501   87.2179   11.5109 N.am    1  UNL1       -0.2901
      4 N          60.9346   87.5394    9.3562 N.am    1  UNL1       -0.2642
      5 C          60.0990   86.9615    8.2526 C.3     1  UNL1        0.0954
      6 C          59.5190   87.8608    7.2014 C.3     1  UNL1        0.0309
      7 C          59.7747   89.3380    7.2538 C.3     1  UNL1        0.0827
      8 C          60.6103   89.9158    8.3574 C.3     1  UNL1        0.0309
      9 C          61.1902   89.0165    9.4086 C.3     1  UNL1        0.0954
     10 H          62.5179   88.1874   11.5453 H       1  UNL1        0.1509
     11 C          59.1948   90.2373    6.2027 C.ar    1  UNL1        0.2362
     12 N          59.9728   91.0555    5.2153 N.ar    1  UNL1       -0.1895
     13 C          58.9939   91.8002    4.3567 C.ar    1  UNL1        0.2210
     14 N          57.6107   91.4421    4.8135 N.ar    1  UNL1       -0.0544
     15 O          57.7349   90.4762    5.9543 O.2     1  UNL1       -0.3370
     16 C          59.3377   92.7381    3.2378 C.ar    1  UNL1        0.1203
     17 C          59.0087   92.3688    1.8217 C.ar    1  UNL1        0.0224
     18 C          59.3525   93.3067    0.7027 C.ar    1  UNL1        0.0032
     19 C          60.0254   94.6140    0.9999 C.ar    1  UNL1        0.0207
     20 C          60.3544   94.9833    2.4160 C.ar    1  UNL1        0.0989
     21 N          60.0105   94.0453    3.5350 N.ar    1  UNL1       -0.2406
     22 C          62.9300   86.3186   12.5621 C.3     1  UNL1        0.0774
     23 C          63.7483   86.1329   13.8054 C.3     1  UNL1        0.0259
     24 C          63.1162   84.9468   13.1394 C.3     1  UNL1        0.0420
     25 C          62.8588   83.4699   13.0881 C.ar    1  UNL1       -0.0208
     26 C          62.2613   82.7711   14.2733 C.ar    1  UNL1       -0.0042
     27 C          62.0039   81.2943   14.2219 C.ar    1  UNL1       -0.0003
     28 C          62.3441   80.5162   12.9855 C.ar    1  UNL1       -0.0000
     29 C          62.9416   81.2149   11.8003 C.ar    1  UNL1       -0.0003
     30 C          63.1990   82.6918   11.8516 C.ar    1  UNL1       -0.0042
@<TRIPOS>BOND
     1     1     2    2
     2     2     3   am
     3     3    22    1
     4    22    23    1
     5    23    24    1
     6    24    25    1
     7    25    26   ar
     8    26    27   ar
     9    27    28   ar
    10    28    29   ar
    11    29    30   ar
    12     2     4   am
    13     4     5    1
    14     5     6    1
    15     6     7    1
    16     7    11    1
    17    11    12   ar
    18    12    13   ar
    19    13    16    1
    20    16    17   ar
    21    17    18   ar
    22    18    19   ar
    23    19    20   ar
    24    20    21   ar
    25    13    14   ar
    26    14    15   ar
    27     7     8    1
    28     8     9    1
    29    24    22    1
    30    30    25   ar
    31     9     4    1
    32    15    11   ar
    33    21    16   ar
    34     3    10    1
@<TRIPOS>MOLECULE
*****
 30 34 0 0 0
SMALL
GASTEIGER

@<TRIPOS>ATOM
      1 O          64.3704   92.9235   10.8832 O.2     1  UNL1       -0.2526
      2 C          64.9465   92.4993   12.2017 C.2     1  UNL1        0.3039
      3 N          65.8299   93.4365   12.9705 N.am    1  UNL1       -0.2901
      4 N          64.6393   91.1378   12.7512 N.am    1  UNL1       -0.2642
      5 C          63.7559   90.2005   11.9822 C.3     1  UNL1        0.0954
      6 C          63.4486   88.8390   12.5317 C.3     1  UNL1        0.0309
      7 C          64.0248   88.4148   13.8502 C.3     1  UNL1        0.0827
      8 C          64.9081   89.3521   14.6190 C.3     1  UNL1        0.0309
      9 C          65.2154   90.7136   14.0695 C.3     1  UNL1        0.0954
     10 H          66.2081   93.1581   13.8358 H       1  UNL1        0.1509
     11 C          63.7175   87.0533   14.3997 C.ar    1  UNL1        0.2362
     12 N          63.5364   85.7990   13.5973 N.ar    1  UNL1       -0.1895
     13 C          63.2444   84.6776   14.5498 C.ar    1  UNL1        0.2210
     14 N          63.2450   85.2388   15.9408 N.ar    1  UNL1       -0.0544
     15 O          63.5375   86.7071   15.8480 O.2     1  UNL1       -0.3370
     16 C          62.9954   83.2462   14.1767 C.ar    1  UNL1        0.1203
     17 C          61.7586   82.5492   14.6609 C.ar    1  UNL1        0.0224
     18 C          61.5095   81.1178   14.2878 C.ar    1  UNL1        0.0032
     19 C          62.4973   80.3835   13.4305 C.ar    1  UNL1        0.0207
     20 C          63.7341   81.0805   12.9463 C.ar    1  UNL1        0.0989
     21 N          63.9831   82.5119   13.3194 N.ar    1  UNL1       -0.2406
     22 C          66.1372   94.7980   12.4210 C.3     1  UNL1        0.0774
     23 C          66.5506   96.2234   12.6380 C.3     1  UNL1        0.0259
     24 C          66.2559   95.7307   11.2523 C.3     1  UNL1        0.0420
     25 C          66.1543   95.9846    9.7774 C.ar    1  UNL1       -0.0208
     26 C          67.2950   95.6218    8.8735 C.ar    1  UNL1       -0.0042
     27 C          67.1934   95.8758    7.3987 C.ar    1  UNL1       -0.0003
     28 C          65.9509   96.4926    6.8277 C.ar    1  UNL1       -0.0000
     29 C          64.8102   96.8554    7.7316 C.ar    1  UNL1       -0.0003
     30 C          64.9119   96.6014    9.2064 C.ar    1  UNL1       -0.0042
@<TRIPOS>BOND
     1     1     2    2
     2     2     3   am
     3     3    22    1
     4    22    23    1
     5    23    24    1
     6    24    25    1
     7    25    26   ar
     8    26    27   ar
     9    27    28   ar
    10    28    29   ar
    11    29    30   ar
    12     2     4   am
    13     4     5    1
    14     5     6    1
    15     6     7    1
    16     7    11    1
    17    11    12   ar
    18    12    13   ar
    19    13    16    1
    20    16    17   ar
    21    17    18   ar
    22    18    19   ar
    23    19    20   ar
    24    20    21   ar
    25    13    14   ar
    26    14    15   ar
    27     7     8    1
    28     8     9    1
    29    24    22    1
    30    30    25   ar
    31     9     4    1
    32    15    11   ar
    33    21    16   ar
    34     3    10    1
@<TRIPOS>MOLECULE
*****
 30 34 0 0 0
SMALL
GASTEIGER

@<TRIPOS>ATOM
      1 O          61.9075   84.9290   11.8788 O.2     1  UNL1       -0.2526
      2 C          62.7210   85.3897   13.0519 C.2     1  UNL1        0.3039
      3 N          63.0079   84.4465   14.1824 N.am    1  UNL1       -0.2901
      4 N          63.2476   86.7936   13.0944 N.am    1  UNL1       -0.2642
      5 C          62.9607   87.7367   11.9638 C.3     1  UNL1        0.0954
      6 C          63.4873   89.1406   12.0063 C.3     1  UNL1        0.0309
      7 C          64.3008   89.6013   13.1794 C.3     1  UNL1        0.0827
      8 C          64.5877   88.6582   14.3099 C.3     1  UNL1        0.0309
      9 C          64.0611   87.2543   14.2674 C.3     1  UNL1        0.0954
     10 H          63.5418   84.7489   14.9523 H       1  UNL1        0.1509
     11 C          64.8275   91.0052   13.2218 C.ar    1  UNL1        0.2362
     12 N          65.2288   91.8326   12.0368 N.ar    1  UNL1       -0.1895
     13 C          65.6946   93.1669   12.5394 C.ar    1  UNL1        0.2210
     14 N          65.5811   93.1642   14.0351 N.ar    1  UNL1       -0.0544
     15 O          65.0452   91.8282   14.4568 O.2     1  UNL1       -0.3370
     16 C          66.1873   94.3042   11.6946 C.ar    1  UNL1        0.1203
     17 C          66.8662   94.0272   10.3860 C.ar    1  UNL1        0.0224
     18 C          67.3590   95.1645    9.5411 C.ar    1  UNL1        0.0032
     19 C          67.1729   96.5788   10.0049 C.ar    1  UNL1        0.0207
     20 C          66.4941   96.8558   11.3135 C.ar    1  UNL1        0.0989
     21 N          66.0013   95.7185   12.1584 N.ar    1  UNL1       -0.2406
     22 C          62.4812   83.0426   14.1399 C.3     1  UNL1        0.0774
     23 C          61.7294   81.9172   14.7864 C.3     1  UNL1        0.0259
     24 C          62.3210   81.7366   13.4199 C.3     1  UNL1        0.0420
     25 C          62.5701   80.8783   12.2151 C.ar    1  UNL1       -0.0208
     26 C          62.4529   79.3865   12.3199 C.ar    1  UNL1       -0.0042
     27 C          62.7020   78.5283   11.1152 C.ar    1  UNL1       -0.0003
     28 C          63.0683   79.1618    9.8058 C.ar    1  UNL1       -0.0000
     29 C          63.1856   80.6535    9.7011 C.ar    1  UNL1       -0.0003
     30 C          62.9365   81.5117   10.9057 C.ar    1  UNL1       -0.0042
@<TRIPOS>BOND
     1     1     2    2
     2     2     3   am
     3     3    22    1
     4    22    23    1
     5    23    24    1
     6    24    25    1
     7    25    26   ar
     8    26    27   ar
     9    27    28   ar
    10    28    29   ar
    11    29    30   ar
    12     2     4   am
    13     4     5    1
    14     5     6    1
    15     6     7    1
    16     7    11    1
    17    11    12   ar
    18    12    13   ar
    19    13    16    1
    20    16    17   ar
    21    17    18   ar
    22    18    19   ar
    23    19    20   ar
    24    20    21   ar
    25    13    14   ar
    26    14    15   ar
    27     7     8    1
    28     8     9    1
    29    24    22    1
    30    30    25   ar
    31     9     4    1
    32    15    11   ar
    33    21    16   ar
    34     3    10    1
@<TRIPOS>MOLECULE
*****
 30 34 0 0 0
SMALL
GASTEIGER

@<TRIPOS>ATOM
      1 O          61.8302   87.3271   11.6965 O.2     1  UNL1       -0.2526
      2 C          61.4566   86.7517   10.3625 C.2     1  UNL1        0.3039
      3 N          61.6497   85.2882   10.0963 N.am    1  UNL1       -0.2901
      4 N          60.8899   87.6399    9.2948 N.am    1  UNL1       -0.2642
      5 C          60.6968   89.1034    9.5611 C.3     1  UNL1        0.0954
      6 C          60.1301   89.9916    8.4934 C.3     1  UNL1        0.0309
      7 C          59.7565   89.4162    7.1594 C.3     1  UNL1        0.0827
      8 C          59.9496   87.9528    6.8932 C.3     1  UNL1        0.0309
      9 C          60.5163   87.0646    7.9609 C.3     1  UNL1        0.0954
     10 H          61.4046   84.9106    9.2208 H       1  UNL1        0.1509
     11 C          59.1898   90.3044    6.0917 C.ar    1  UNL1        0.2362
     12 N          59.9803   91.1166    5.1091 N.ar    1  UNL1       -0.1895
     13 C          59.0121   91.8505    4.2292 C.ar    1  UNL1        0.2210
     14 N          57.6233   91.4918    4.6680 N.ar    1  UNL1       -0.0544
     15 O          57.7331   90.5363    5.8190 O.2     1  UNL1       -0.3370
     16 C          59.3700   92.7799    3.1076 C.ar    1  UNL1        0.1203
     17 C          59.0816   92.3887    1.6885 C.ar    1  UNL1        0.0224
     18 C          59.4395   93.3180    0.5667 C.ar    1  UNL1        0.0032
     19 C          60.0858   94.6386    0.8641 C.ar    1  UNL1        0.0207
     20 C          60.3742   95.0298    2.2832 C.ar    1  UNL1        0.0989
     21 N          60.0163   94.1004    3.4050 N.ar    1  UNL1       -0.2406
     22 C          62.2164   84.4001   11.1640 C.3     1  UNL1        0.0774
     23 C          62.7005   83.0526   11.6111 C.3     1  UNL1        0.0259
     24 C          62.7139   84.2092   12.5662 C.3     1  UNL1        0.0420
     25 C          63.0087   84.7668   13.9271 C.ar    1  UNL1       -0.0208
     26 C          62.1816   84.3458   15.1055 C.ar    1  UNL1       -0.0042
     27 C          62.4766   84.9034   16.4664 C.ar    1  UNL1       -0.0003
     28 C          63.5986   85.8820   16.6489 C.ar    1  UNL1       -0.0000
     29 C          64.4257   86.3031   15.4706 C.ar    1  UNL1       -0.0003
     30 C          64.1308   85.7455   14.1097 C.ar    1  UNL1       -0.0042
@<TRIPOS>BOND
     1     1     2    2
     2     2     3   am
     3     3    22    1
     4    22    23    1
     5    23    24    1
     6    24    25    1
     7    25    26   ar
     8    26    27   ar
     9    27    28   ar
    10    28    29   ar
    11    29    30   ar
    12     2     4   am
    13     4     5    1
    14     5     6    1
    15     6     7    1
    16     7    11    1
    17    11    12   ar
    18    12    13   ar
    19    13    16    1
    20    16    17   ar
    21    17    18   ar
    22    18    19   ar
    23    19    20   ar
    24    20    21   ar
    25    13    14   ar
    26    14    15   ar
    27     7     8    1
    28     8     9    1
    29    24    22    1
    30    30    25   ar
    31     9     4    1
    32    15    11   ar
    33    21    16   ar
    34     3    10    1
@<TRIPOS>MOLECULE
*****
 30 34 0 0 0
SMALL
GASTEIGER

@<TRIPOS>ATOM
      1 O          63.8517   90.9624   12.1250 O.2     1  UNL1       -0.2526
      2 C          64.4211   90.0577   13.1773 C.2     1  UNL1        0.3039
      3 N          65.3752   90.6025   14.1985 N.am    1  UNL1       -0.2901
      4 N          64.0363   88.6082   13.2085 N.am    1  UNL1       -0.2642
      5 C          63.0821   88.0635   12.1872 C.3     1  UNL1        0.0954
      6 C          62.6973   86.6140   12.2184 C.3     1  UNL1        0.0309
      7 C          63.2667   85.7093   13.2707 C.3     1  UNL1        0.0827
      8 C          64.2208   86.2541   14.2919 C.3     1  UNL1        0.0309
      9 C          64.6056   87.7036   14.2608 C.3     1  UNL1        0.0954
     10 H          65.7489   90.0087   14.8892 H       1  UNL1        0.1509
     11 C          62.8819   84.2598   13.3019 C.ar    1  UNL1        0.2362
     12 N          63.1542   83.2520   12.2248 N.ar    1  UNL1       -0.1895
     13 C          62.5979   81.9330   12.6728 C.ar    1  UNL1        0.2210
     14 N          61.9817   82.1256   14.0268 N.ar    1  UNL1       -0.0544
     15 O          62.1572   83.5637   14.4155 O.2     1  UNL1       -0.3370
     16 C          62.6487   80.6471   11.9021 C.ar    1  UNL1        0.1203
     17 C          62.4474   79.3400   12.6100 C.ar    1  UNL1        0.0224
     18 C          62.4983   78.0541   11.8394 C.ar    1  UNL1        0.0032
     19 C          62.7505   78.0753   10.3609 C.ar    1  UNL1        0.0207
     20 C          62.9519   79.3823    9.6531 C.ar    1  UNL1        0.0989
     21 N          62.9010   80.6683   10.4237 N.ar    1  UNL1       -0.2406
     22 C          65.7600   92.0520   14.1674 C.3     1  UNL1        0.0774
     23 C          66.0845   93.3256   14.8901 C.3     1  UNL1        0.0259
     24 C          66.1020   93.2888   13.3907 C.3     1  UNL1        0.0420
     25 C          66.3095   93.9816   12.0765 C.ar    1  UNL1       -0.0208
     26 C          66.7483   93.1967   10.8760 C.ar    1  UNL1       -0.0042
     27 C          66.9558   93.8895    9.5619 C.ar    1  UNL1       -0.0003
     28 C          66.7245   95.3673    9.4483 C.ar    1  UNL1       -0.0000
     29 C          66.2857   96.1521   10.6489 C.ar    1  UNL1       -0.0003
     30 C          66.0782   95.4593   11.9630 C.ar    1  UNL1       -0.0042
@<TRIPOS>BOND
     1     1     2    2
     2     2     3   am
     3     3    22    1
     4    22    23    1
     5    23    24    1
     6    24    25    1
     7    25    26   ar
     8    26    27   ar
     9    27    28   ar
    10    28    29   ar
    11    29    30   ar
    12     2     4   am
    13     4     5    1
    14     5     6    1
    15     6     7    1
    16     7    11    1
    17    11    12   ar
    18    12    13   ar
    19    13    16    1
    20    16    17   ar
    21    17    18   ar
    22    18    19   ar
    23    19    20   ar
    24    20    21   ar
    25    13    14   ar
    26    14    15   ar
    27     7     8    1
    28     8     9    1
    29    24    22    1
    30    30    25   ar
    31     9     4    1
    32    15    11   ar
    33    21    16   ar
    34     3    10    1
