@<TRIPOS>MOLECULE
*****
 46 49 0 0 0
SMALL
GASTEIGER

@<TRIPOS>ATOM
      1 N          64.1673   91.0200   12.5860 N.pl3   1  UNL1       -0.3043
      2 C          64.2877   89.5255   12.6329 C.3     1  UNL1        0.1123
      3 C          63.3461   88.6719   11.8363 C.3     1  UNL1        0.1149
      4 N          62.2840   89.3126   10.9928 N.am    1  UNL1       -0.2747
      5 C          61.3424   88.4590   10.1962 C.2     1  UNL1        0.2442
      6 O          60.2804   89.0997    9.3527 O.2     1  UNL1       -0.2731
      7 C          62.1637   90.8071   10.9458 C.3     1  UNL1        0.1149
      8 C          63.1054   91.6607   11.7424 C.3     1  UNL1        0.1123
      9 C          65.8667   92.9811   12.7124 C.ar    1  UNL1        0.0111
     10 C          66.8084   93.8347   13.5090 C.ar    1  UNL1        0.0282
     11 C          66.9923   93.5808   14.9759 C.ar    1  UNL1        0.1400
     12 F          67.9340   94.4345   15.7725 F       1  UNL1       -0.2042
     13 C          66.2346   92.4733   15.6461 C.ar    1  UNL1        0.0309
     14 C          65.2929   91.6197   14.8495 C.ar    1  UNL1        0.0166
     15 C          65.1090   91.8736   13.3826 C.ar    1  UNL1        0.0456
     16 C          65.6828   93.2350   11.2455 C.3     1  UNL1        0.0953
     17 N          64.7248   94.2919   10.7816 N.am    1  UNL1       -0.3011
     18 C          65.2426   95.5389   10.1282 C.2     1  UNL1        0.2350
     19 O          64.2845   96.5957    9.6643 O.2     1  UNL1       -0.2737
     20 H          63.7562   94.1671   10.9059 H       1  UNL1        0.1497
     21 C          66.7183   95.7290    9.9387 C.3     1  UNL1        0.1086
     22 C          66.8167   96.3311   11.3090 C.3     1  UNL1        0.0249
     23 C          66.6200   95.1270    8.5684 C.3     1  UNL1        0.0249
     24 N          68.1941   95.9192    9.7492 N.3     1  UNL1       -0.3164
     25 H          68.5916   96.3483   10.5848 H       1  UNL1        0.1192
     26 H          68.3584   96.5248    8.9451 H       1  UNL1        0.1192
     27 C          66.4569   92.4321   10.2425 C.3     1  UNL1        0.0242
     28 C          68.4121   91.6107   11.7435 C.3     1  UNL1        0.0001
     29 C          67.9225   92.1870   10.4481 C.3     1  UNL1        0.0020
     30 C          68.8984   92.5184    9.3583 C.3     1  UNL1        0.0001
     31 C          61.4628   86.9645   10.2431 C.3     1  UNL1        0.1564
     32 N          61.6652   86.1882    8.9757 N.am    1  UNL1       -0.2727
     33 C          62.9482   85.5552    8.5249 C.3     1  UNL1        0.0943
     34 C          62.6962   84.8844    7.2072 C.3     1  UNL1        0.0311
     35 C          61.2574   85.1028    6.8436 C.3     1  UNL1        0.0870
     36 C          60.6203   85.9086    7.9366 C.2     1  UNL1        0.2260
     37 O          59.1894   86.3563    7.9824 O.2     1  UNL1       -0.2749
     38 C          61.3807   86.2464   11.5575 C.3     1  UNL1        0.0564
     39 C          62.2668   85.0658   11.8237 C.ar    1  UNL1       -0.0094
     40 C          62.0979   83.8064   11.0266 C.ar    1  UNL1       -0.0025
     41 C          62.9840   82.6257   11.2928 C.ar    1  UNL1        0.0111
     42 C          64.0390   82.7045   12.3561 C.ar    1  UNL1        0.0585
     43 CL         64.9251   81.5238   12.6224 Cl      1  UNL1       -0.0822
     44 C          64.2080   83.9639   13.1533 C.ar    1  UNL1        0.0225
     45 C          63.3219   85.1446   12.8871 C.ar    1  UNL1        0.0546
     46 CL         63.4908   86.4040   13.6841 Cl      1  UNL1       -0.0825
@<TRIPOS>BOND
     1    28    29    1
     2    29    30    1
     3    29    27    1
     4    16    27    1
     5    16    17    1
     6    17    18   am
     7    18    19    2
     8    18    21    1
     9    21    22    1
    10    21    23    1
    11    21    24    1
    12    16     9    1
    13     9    10   ar
    14    10    11   ar
    15    11    12    1
    16    11    13   ar
    17    13    14   ar
    18    14    15   ar
    19    15     1    1
    20     1     2    1
    21     2     3    1
    22     3     4    1
    23     4     5   am
    24     5     6    2
    25     5    31    1
    26    31    38    1
    27    38    39    1
    28    39    40   ar
    29    40    41   ar
    30    41    42   ar
    31    42    43    1
    32    42    44   ar
    33    44    45   ar
    34    45    46    1
    35    31    32    1
    36    32    33    1
    37    33    34    1
    38    34    35    1
    39    35    36    1
    40    36    37    2
    41     4     7    1
    42     7     8    1
    43    15     9   ar
    44     8     1    1
    45    45    39   ar
    46    36    32   am
    47    17    20    1
    48    24    25    1
    49    24    26    1
@<TRIPOS>MOLECULE
*****
 46 49 0 0 0
SMALL
GASTEIGER

@<TRIPOS>ATOM
      1 N          64.2304   91.1432   13.0247 N.pl3   1  UNL1       -0.3043
      2 C          64.4409   90.6390   11.6277 C.3     1  UNL1        0.1123
      3 C          63.3954   89.7858   10.9729 C.3     1  UNL1        0.1149
      4 N          62.1393   89.4367   11.7150 N.am    1  UNL1       -0.2747
      5 C          61.0938   88.5835   11.0601 C.2     1  UNL1        0.2442
      6 O          59.8379   88.2345   11.8022 O.2     1  UNL1       -0.2731
      7 C          61.9289   89.9409   13.1119 C.3     1  UNL1        0.1149
      8 C          62.9745   90.7942   13.7668 C.3     1  UNL1        0.1123
      9 C          66.0452   92.9958   12.8673 C.ar    1  UNL1        0.0111
     10 C          67.0907   93.8490   13.5222 C.ar    1  UNL1        0.0282
     11 C          67.3671   93.7028   14.9892 C.ar    1  UNL1        0.1400
     12 F          68.4127   94.5561   15.6441 F       1  UNL1       -0.2042
     13 C          66.5979   92.7035   15.8014 C.ar    1  UNL1        0.0309
     14 C          65.5524   91.8503   15.1466 C.ar    1  UNL1        0.0166
     15 C          65.2760   91.9964   13.6795 C.ar    1  UNL1        0.0456
     16 C          65.7688   93.1419   11.4003 C.3     1  UNL1        0.0953
     17 N          64.7564   94.1408   10.9236 N.am    1  UNL1       -0.3011
     18 C          65.2066   95.3923   10.2299 C.2     1  UNL1        0.2350
     19 O          64.1941   96.3912    9.7533 O.2     1  UNL1       -0.2737
     20 H          63.7965   93.9751   11.0661 H       1  UNL1        0.1497
     21 C          66.6691   95.6448   10.0129 C.3     1  UNL1        0.1086
     22 C          66.7550   96.3037   11.3576 C.3     1  UNL1        0.0249
     23 C          66.5833   94.9859    8.6681 C.3     1  UNL1        0.0249
     24 N          68.1317   95.8973    9.7958 N.3     1  UNL1       -0.3164
     25 H          68.5182   96.3770   10.6088 H       1  UNL1        0.1192
     26 H          68.2570   96.4783    8.9668 H       1  UNL1        0.1192
     27 C          66.5048   92.2891   10.4098 C.3     1  UNL1        0.0242
     28 C          68.8922   92.4698    9.4010 C.3     1  UNL1        0.0001
     29 C          67.9873   92.0998   10.5386 C.3     1  UNL1        0.0020
     30 C          68.5648   91.5405   11.8049 C.3     1  UNL1        0.0001
     31 C          61.3043   88.0793    9.6631 C.3     1  UNL1        0.1564
     32 N          60.3369   88.4499    8.5783 N.am    1  UNL1       -0.2727
     33 C          59.9986   89.8429    8.1368 C.3     1  UNL1        0.0943
     34 C          58.9906   89.7465    7.0302 C.3     1  UNL1        0.0311
     35 C          58.7060   88.2938    6.7878 C.3     1  UNL1        0.0870
     36 C          59.5380   87.4925    7.7446 C.2     1  UNL1        0.2260
     37 O          59.5662   85.9964    7.8493 O.2     1  UNL1       -0.2749
     38 C          62.4820   87.2045    9.3510 C.3     1  UNL1        0.0564
     39 C          62.6630   85.9036   10.0755 C.ar    1  UNL1       -0.0094
     40 C          62.4692   85.8394   11.5615 C.ar    1  UNL1       -0.0025
     41 C          62.6501   84.5385   12.2860 C.ar    1  UNL1        0.0111
     42 C          63.0249   83.3017   11.5245 C.ar    1  UNL1        0.0585
     43 CL         63.2058   82.0008   12.2490 Cl      1  UNL1       -0.0822
     44 C          63.2187   83.3659   10.0384 C.ar    1  UNL1        0.0225
     45 C          63.0378   84.6668    9.3139 C.ar    1  UNL1        0.0546
     46 CL         63.2315   84.7309    7.8279 Cl      1  UNL1       -0.0825
@<TRIPOS>BOND
     1    28    29    1
     2    29    30    1
     3    29    27    1
     4    16    27    1
     5    16    17    1
     6    17    18   am
     7    18    19    2
     8    18    21    1
     9    21    22    1
    10    21    23    1
    11    21    24    1
    12    16     9    1
    13     9    10   ar
    14    10    11   ar
    15    11    12    1
    16    11    13   ar
    17    13    14   ar
    18    14    15   ar
    19    15     1    1
    20     1     2    1
    21     2     3    1
    22     3     4    1
    23     4     5   am
    24     5     6    2
    25     5    31    1
    26    31    38    1
    27    38    39    1
    28    39    40   ar
    29    40    41   ar
    30    41    42   ar
    31    42    43    1
    32    42    44   ar
    33    44    45   ar
    34    45    46    1
    35    31    32    1
    36    32    33    1
    37    33    34    1
    38    34    35    1
    39    35    36    1
    40    36    37    2
    41     4     7    1
    42     7     8    1
    43    15     9   ar
    44     8     1    1
    45    45    39   ar
    46    36    32   am
    47    17    20    1
    48    24    25    1
    49    24    26    1
@<TRIPOS>MOLECULE
*****
 46 49 0 0 0
SMALL
GASTEIGER

@<TRIPOS>ATOM
      1 N          62.1682   89.2992   11.2037 N.pl3   1  UNL1       -0.3043
      2 C          63.4867   89.7986   10.6916 C.3     1  UNL1        0.1123
      3 C          64.4216   90.5265   11.6114 C.3     1  UNL1        0.1149
      4 N          64.0379   90.7550   13.0435 N.am    1  UNL1       -0.2747
      5 C          64.9728   91.4829   13.9633 C.2     1  UNL1        0.2442
      6 O          64.5891   91.7115   15.3953 O.2     1  UNL1       -0.2731
      7 C          62.7194   90.2557   13.5556 C.3     1  UNL1        0.1149
      8 C          61.7846   89.5278   12.6356 C.3     1  UNL1        0.1123
      9 C          61.2550   87.0727   10.2246 C.ar    1  UNL1        0.0111
     10 C          60.3202   86.3448    9.3047 C.ar    1  UNL1        0.0282
     11 C          59.3637   87.1156    8.4439 C.ar    1  UNL1        0.1400
     12 F          58.4288   86.3877    7.5239 F       1  UNL1       -0.2042
     13 C          59.3420   88.6143    8.5030 C.ar    1  UNL1        0.0309
     14 C          60.2768   89.3421    9.4229 C.ar    1  UNL1        0.0166
     15 C          61.2334   88.5713   10.2837 C.ar    1  UNL1        0.0456
     16 C          62.2115   86.3019   11.0854 C.3     1  UNL1        0.0953
     17 N          62.9602   86.9975   12.1833 N.am    1  UNL1       -0.3011
     18 C          63.4114   86.2269   13.3885 C.2     1  UNL1        0.2350
     19 O          64.1601   86.9226   14.4865 O.2     1  UNL1       -0.2737
     20 H          63.1555   87.9599   12.1129 H       1  UNL1        0.1497
     21 C          63.1139   84.7607   13.4958 C.3     1  UNL1        0.1086
     22 C          61.6806   85.0743   13.8077 C.3     1  UNL1        0.0249
     23 C          64.5471   84.4470   13.1839 C.3     1  UNL1        0.0249
     24 N          62.8164   83.2944   13.6032 N.3     1  UNL1       -0.3164
     25 H          61.8300   83.1632   13.8275 H       1  UNL1        0.1192
     26 H          63.3901   82.8841   14.3399 H       1  UNL1        0.1192
     27 C          62.4194   84.8354   10.8482 C.3     1  UNL1        0.0242
     28 C          63.3048   85.1109    8.4212 C.3     1  UNL1        0.0001
     29 C          63.3045   84.3748    9.7282 C.3     1  UNL1        0.0020
     30 C          64.1892   83.1780    9.9151 C.3     1  UNL1        0.0001
     31 C          66.2913   91.9823   13.4513 C.3     1  UNL1        0.1564
     32 N          67.2827   92.5893   14.3991 N.am    1  UNL1       -0.2727
     33 C          66.9553   93.4089   15.6120 C.3     1  UNL1        0.0943
     34 C          68.2459   93.8096   16.2630 C.3     1  UNL1        0.0311
     35 C          69.3710   93.2376   15.4524 C.3     1  UNL1        0.0870
     36 C          68.7757   92.4835   14.3004 C.2     1  UNL1        0.2260
     37 O          69.5394   91.7519   13.2367 O.2     1  UNL1       -0.2749
     38 C          66.6183   91.8745   11.9914 C.3     1  UNL1        0.0564
     39 C          66.7825   93.1162   11.1659 C.ar    1  UNL1       -0.0094
     40 C          66.1232   94.3937   11.5936 C.ar    1  UNL1       -0.0025
     41 C          66.2874   95.6354   10.7682 C.ar    1  UNL1        0.0111
     42 C          67.1109   95.5994    9.5150 C.ar    1  UNL1        0.0585
     43 CL         67.2751   96.8411    8.6896 Cl      1  UNL1       -0.0822
     44 C          67.7703   94.3218    9.0872 C.ar    1  UNL1        0.0225
     45 C          67.6061   93.0802    9.9127 C.ar    1  UNL1        0.0546
     46 CL         68.2655   91.8026    9.4850 Cl      1  UNL1       -0.0825
@<TRIPOS>BOND
     1    28    29    1
     2    29    30    1
     3    29    27    1
     4    16    27    1
     5    16    17    1
     6    17    18   am
     7    18    19    2
     8    18    21    1
     9    21    22    1
    10    21    23    1
    11    21    24    1
    12    16     9    1
    13     9    10   ar
    14    10    11   ar
    15    11    12    1
    16    11    13   ar
    17    13    14   ar
    18    14    15   ar
    19    15     1    1
    20     1     2    1
    21     2     3    1
    22     3     4    1
    23     4     5   am
    24     5     6    2
    25     5    31    1
    26    31    38    1
    27    38    39    1
    28    39    40   ar
    29    40    41   ar
    30    41    42   ar
    31    42    43    1
    32    42    44   ar
    33    44    45   ar
    34    45    46    1
    35    31    32    1
    36    32    33    1
    37    33    34    1
    38    34    35    1
    39    35    36    1
    40    36    37    2
    41     4     7    1
    42     7     8    1
    43    15     9   ar
    44     8     1    1
    45    45    39   ar
    46    36    32   am
    47    17    20    1
    48    24    25    1
    49    24    26    1
@<TRIPOS>MOLECULE
*****
 46 49 0 0 0
SMALL
GASTEIGER

@<TRIPOS>ATOM
      1 N          61.5896   86.2977    9.5984 N.pl3   1  UNL1       -0.3043
      2 C          61.2598   85.9390   11.0171 C.3     1  UNL1        0.1123
      3 C          62.1036   84.9415   11.7540 C.3     1  UNL1        0.1149
      4 N          63.2771   84.3027   11.0722 N.am    1  UNL1       -0.2747
      5 C          64.1209   83.3052   11.8091 C.2     1  UNL1        0.2442
      6 O          65.2944   82.6664   11.1273 O.2     1  UNL1       -0.2731
      7 C          63.6069   84.6614    9.6536 C.3     1  UNL1        0.1149
      8 C          62.7630   85.6590    8.9167 C.3     1  UNL1        0.1123
      9 C          60.8393   88.7532    9.2013 C.ar    1  UNL1        0.0111
     10 C          59.9955   89.7507    8.4645 C.ar    1  UNL1        0.0282
     11 C          59.0581   89.2902    7.3878 C.ar    1  UNL1        0.1400
     12 F          58.2143   90.2877    6.6509 F       1  UNL1       -0.2042
     13 C          58.9646   87.8322    7.0480 C.ar    1  UNL1        0.0309
     14 C          59.8084   86.8348    7.7848 C.ar    1  UNL1        0.0166
     15 C          60.7457   87.2953    8.8615 C.ar    1  UNL1        0.0456
     16 C          61.7767   89.2138   10.2780 C.3     1  UNL1        0.0953
     17 N          61.5488   88.7952   11.7003 N.am    1  UNL1       -0.3011
     18 C          60.3965   89.3638   12.4740 C.2     1  UNL1        0.2350
     19 O          60.1687   88.9452   13.8964 O.2     1  UNL1       -0.2737
     20 H          62.1556   88.1472   12.1259 H       1  UNL1        0.1497
     21 C          59.4720   90.3511   11.8256 C.3     1  UNL1        0.1086
     22 C          60.5965   91.3387   11.7258 C.3     1  UNL1        0.0249
     23 C          58.3474   89.3635   11.9253 C.3     1  UNL1        0.0249
     24 N          58.5474   91.3383   11.1771 N.3     1  UNL1       -0.3164
     25 H          59.0589   92.1953   10.9661 H       1  UNL1        0.1192
     26 H          57.7768   91.5496   11.8110 H       1  UNL1        0.1192
     27 C          62.9419   90.0929    9.9325 C.3     1  UNL1        0.0242
     28 C          63.7785   90.2584   12.3866 C.3     1  UNL1        0.0001
     29 C          63.6579   90.8482   11.0127 C.3     1  UNL1        0.0020
     30 C          64.2532   92.1933   10.7190 C.3     1  UNL1        0.0001
     31 C          63.7912   82.9465   13.2278 C.3     1  UNL1        0.1564
     32 N          62.6777   81.9845   13.5188 N.am    1  UNL1       -0.2727
     33 C          61.6241   82.1483   14.5738 C.3     1  UNL1        0.0943
     34 C          60.7175   80.9549   14.5129 C.3     1  UNL1        0.0311
     35 C          61.2109   80.0534   13.4201 C.3     1  UNL1        0.0870
     36 C          62.4223   80.6898   12.8057 C.2     1  UNL1        0.2260
     37 O          63.2355   80.1297   11.6766 O.2     1  UNL1       -0.2749
     38 C          64.5749   83.5498   14.3555 C.3     1  UNL1        0.0564
     39 C          64.2320   84.9210   14.8578 C.ar    1  UNL1       -0.0094
     40 C          64.7868   86.1325   14.1691 C.ar    1  UNL1       -0.0025
     41 C          64.4439   87.5037   14.6715 C.ar    1  UNL1        0.0111
     42 C          63.5463   87.6633   15.8626 C.ar    1  UNL1        0.0585
     43 CL         63.2034   89.0344   16.3650 Cl      1  UNL1       -0.0822
     44 C          62.9915   86.4517   16.5514 C.ar    1  UNL1        0.0225
     45 C          63.3343   85.0805   16.0490 C.ar    1  UNL1        0.0546
     46 CL         62.7796   83.8690   16.7377 Cl      1  UNL1       -0.0825
@<TRIPOS>BOND
     1    28    29    1
     2    29    30    1
     3    29    27    1
     4    16    27    1
     5    16    17    1
     6    17    18   am
     7    18    19    2
     8    18    21    1
     9    21    22    1
    10    21    23    1
    11    21    24    1
    12    16     9    1
    13     9    10   ar
    14    10    11   ar
    15    11    12    1
    16    11    13   ar
    17    13    14   ar
    18    14    15   ar
    19    15     1    1
    20     1     2    1
    21     2     3    1
    22     3     4    1
    23     4     5   am
    24     5     6    2
    25     5    31    1
    26    31    38    1
    27    38    39    1
    28    39    40   ar
    29    40    41   ar
    30    41    42   ar
    31    42    43    1
    32    42    44   ar
    33    44    45   ar
    34    45    46    1
    35    31    32    1
    36    32    33    1
    37    33    34    1
    38    34    35    1
    39    35    36    1
    40    36    37    2
    41     4     7    1
    42     7     8    1
    43    15     9   ar
    44     8     1    1
    45    45    39   ar
    46    36    32   am
    47    17    20    1
    48    24    25    1
    49    24    26    1
@<TRIPOS>MOLECULE
*****
 46 49 0 0 0
SMALL
GASTEIGER

@<TRIPOS>ATOM
      1 N          62.3968   89.0136   11.1376 N.pl3   1  UNL1       -0.3043
      2 C          63.1123   90.2746   10.7531 C.3     1  UNL1        0.1123
      3 C          64.0463   90.9331   11.7247 C.3     1  UNL1        0.1149
      4 N          64.2647   90.3305   13.0809 N.am    1  UNL1       -0.2747
      5 C          65.1987   90.9890   14.0526 C.2     1  UNL1        0.2442
      6 O          65.4171   90.3865   15.4087 O.2     1  UNL1       -0.2731
      7 C          63.5492   89.0695   13.4655 C.3     1  UNL1        0.1149
      8 C          62.6152   88.4110   12.4938 C.3     1  UNL1        0.1123
      9 C          61.2904   86.8652   10.1834 C.ar    1  UNL1        0.0111
     10 C          60.3565   86.2068    9.2118 C.ar    1  UNL1        0.0282
     11 C          59.5949   87.0383    8.2226 C.ar    1  UNL1        0.1400
     12 F          58.6609   86.3798    7.2509 F       1  UNL1       -0.2042
     13 C          59.7672   88.5283    8.2050 C.ar    1  UNL1        0.0309
     14 C          60.7012   89.1866    9.1767 C.ar    1  UNL1        0.0166
     15 C          61.4628   88.3551   10.1659 C.ar    1  UNL1        0.0456
     16 C          62.0520   86.0336   11.1726 C.3     1  UNL1        0.0953
     17 N          61.5079   85.8268   12.5550 N.am    1  UNL1       -0.3011
     18 C          62.2295   84.9325   13.5191 C.2     1  UNL1        0.2350
     19 O          61.6853   84.7257   14.9016 O.2     1  UNL1       -0.2737
     20 H          60.6771   86.2781   12.8296 H       1  UNL1        0.1497
     21 C          63.4953   84.2450   13.1008 C.3     1  UNL1        0.1086
     22 C          62.6951   83.0865   12.5835 C.3     1  UNL1        0.0249
     23 C          64.2955   85.4035   13.6180 C.3     1  UNL1        0.0249
     24 N          64.7611   83.5575   12.6824 N.3     1  UNL1       -0.3164
     25 H          64.5350   82.6589   12.2560 H       1  UNL1        0.1192
     26 H          65.3523   83.4067   13.4999 H       1  UNL1        0.1192
     27 C          63.3578   85.4089   10.7794 C.3     1  UNL1        0.0242
     28 C          63.8520   83.1721    9.5536 C.3     1  UNL1        0.0001
     29 C          63.4586   84.6189    9.5083 C.3     1  UNL1        0.0020
     30 C          63.1660   85.2757    8.1918 C.3     1  UNL1        0.0001
     31 C          65.9142   92.2500   13.6680 C.3     1  UNL1        0.1564
     32 N          67.1668   92.6513   14.3890 N.am    1  UNL1       -0.2727
     33 C          67.2377   93.4630   15.6485 C.3     1  UNL1        0.0943
     34 C          68.6832   93.6246   16.0150 C.3     1  UNL1        0.0311
     35 C          69.5057   92.9128   14.9821 C.3     1  UNL1        0.0870
     36 C          68.5685   92.3112   13.9772 C.2     1  UNL1        0.2260
     37 O          68.9637   91.5103   12.7721 O.2     1  UNL1       -0.2749
     38 C          65.3771   93.1098   12.5625 C.3     1  UNL1        0.0564
     39 C          66.2022   93.3538   11.3338 C.ar    1  UNL1       -0.0094
     40 C          66.8288   92.1992   10.6097 C.ar    1  UNL1       -0.0025
     41 C          67.6539   92.4432    9.3810 C.ar    1  UNL1        0.0111
     42 C          67.8523   93.8417    8.8763 C.ar    1  UNL1        0.0585
     43 CL         68.6773   94.0857    7.6476 Cl      1  UNL1       -0.0822
     44 C          67.2256   94.9964    9.6004 C.ar    1  UNL1        0.0225
     45 C          66.4006   94.7524   10.8291 C.ar    1  UNL1        0.0546
     46 CL         65.7739   95.9069   11.5532 Cl      1  UNL1       -0.0825
@<TRIPOS>BOND
     1    28    29    1
     2    29    30    1
     3    29    27    1
     4    16    27    1
     5    16    17    1
     6    17    18   am
     7    18    19    2
     8    18    21    1
     9    21    22    1
    10    21    23    1
    11    21    24    1
    12    16     9    1
    13     9    10   ar
    14    10    11   ar
    15    11    12    1
    16    11    13   ar
    17    13    14   ar
    18    14    15   ar
    19    15     1    1
    20     1     2    1
    21     2     3    1
    22     3     4    1
    23     4     5   am
    24     5     6    2
    25     5    31    1
    26    31    38    1
    27    38    39    1
    28    39    40   ar
    29    40    41   ar
    30    41    42   ar
    31    42    43    1
    32    42    44   ar
    33    44    45   ar
    34    45    46    1
    35    31    32    1
    36    32    33    1
    37    33    34    1
    38    34    35    1
    39    35    36    1
    40    36    37    2
    41     4     7    1
    42     7     8    1
    43    15     9   ar
    44     8     1    1
    45    45    39   ar
    46    36    32   am
    47    17    20    1
    48    24    25    1
    49    24    26    1
