@<TRIPOS>MOLECULE
*****
 17 18 0 0 0
SMALL
GASTEIGER

@<TRIPOS>ATOM
      1 C          66.1402   93.6840   11.9468 C.ar    1  UNL1        0.1461
      2 C          65.2676   92.4640   11.9537 C.ar    1  UNL1        0.0403
      3 C          65.2603   91.9072   13.3465 C.ar    1  UNL1        0.0375
      4 C          66.1286   92.7831   14.2005 C.ar    1  UNL1        0.1385
      5 O          66.6723   93.8812   13.3353 O.2     1  UNL1       -0.4563
      6 C          67.3299   94.0572    9.6674 C.ar    1  UNL1       -0.0162
      7 C          67.6195   94.9273    8.4804 C.ar    1  UNL1        0.0165
      8 C          67.0093   96.2943    8.3857 C.ar    1  UNL1        0.0986
      9 N          66.1093   96.7912    9.4780 N.ar    1  UNL1       -0.2422
     10 C          65.8197   95.9211   10.6650 C.ar    1  UNL1        0.1016
     11 C          66.4299   94.5541   10.7597 C.ar    1  UNL1        0.0497
     12 C          68.8249   92.1860    8.6608 C.3     1  UNL1        0.0050
     13 C          67.9402   92.6903    9.7621 C.3     1  UNL1        0.0266
     14 C          66.4045   92.5941   15.6627 C.3     1  UNL1        0.1307
     15 N          65.3112   92.8112   16.6664 N.3     1  UNL1       -0.3148
     16 H          65.0427   93.7952   16.6692 H       1  UNL1        0.1192
     17 H          65.6436   92.5468   17.5938 H       1  UNL1        0.1192
@<TRIPOS>BOND
     1    12    13    1
     2    13     6    1
     3     6     7   ar
     4     7     8   ar
     5     8     9   ar
     6     9    10   ar
     7    10    11   ar
     8    11     1    1
     9     1     2   ar
    10     2     3   ar
    11     3     4   ar
    12     4    14    1
    13    14    15    1
    14     4     5   ar
    15    11     6   ar
    16     5     1   ar
    17    15    16    1
    18    15    17    1
@<TRIPOS>MOLECULE
*****
 17 18 0 0 0
SMALL
GASTEIGER

@<TRIPOS>ATOM
      1 C          61.9425   89.1920   10.4857 C.ar    1  UNL1        0.1461
      2 C          62.7909   90.3847   10.1577 C.ar    1  UNL1        0.0403
      3 C          63.4739   90.8282   11.4174 C.ar    1  UNL1        0.0375
      4 C          63.0476   89.9095   12.5240 C.ar    1  UNL1        0.1385
      5 O          62.1012   88.8983   11.9481 O.2     1  UNL1       -0.4563
      6 C          61.2918   86.9523    9.3409 C.ar    1  UNL1       -0.0162
      7 C          60.4351   86.1876    8.3759 C.ar    1  UNL1        0.0165
      8 C          59.3724   86.8977    7.5907 C.ar    1  UNL1        0.0986
      9 N          59.1665   88.3725    7.7705 N.ar    1  UNL1       -0.2422
     10 C          60.0231   89.1373    8.7355 C.ar    1  UNL1        0.1016
     11 C          61.0858   88.4272    9.5207 C.ar    1  UNL1        0.0497
     12 C          61.9773   85.4053   11.3123 C.3     1  UNL1        0.0050
     13 C          62.3545   86.2422   10.1261 C.3     1  UNL1        0.0266
     14 C          63.4901   89.9882   13.9550 C.3     1  UNL1        0.1307
     15 N          63.4252   91.2946   14.6893 N.3     1  UNL1       -0.3148
     16 H          64.0826   91.9528   14.2709 H       1  UNL1        0.1192
     17 H          63.6691   91.1467   15.6686 H       1  UNL1        0.1192
@<TRIPOS>BOND
     1    12    13    1
     2    13     6    1
     3     6     7   ar
     4     7     8   ar
     5     8     9   ar
     6     9    10   ar
     7    10    11   ar
     8    11     1    1
     9     1     2   ar
    10     2     3   ar
    11     3     4   ar
    12     4    14    1
    13    14    15    1
    14     4     5   ar
    15    11     6   ar
    16     5     1   ar
    17    15    16    1
    18    15    17    1
@<TRIPOS>MOLECULE
*****
 17 18 0 0 0
SMALL
GASTEIGER

@<TRIPOS>ATOM
      1 C          61.6982   86.4882   10.7029 C.ar    1  UNL1        0.1461
      2 C          60.5565   86.7084    9.7553 C.ar    1  UNL1        0.0403
      3 C          60.0716   88.1167    9.9331 C.ar    1  UNL1        0.0375
      4 C          60.9137   88.7669   10.9907 C.ar    1  UNL1        0.1385
      5 O          61.9189   87.7604   11.4664 O.2     1  UNL1       -0.4563
      6 C          63.2395   84.6563    9.6937 C.ar    1  UNL1       -0.0162
      7 C          64.0230   83.3868    9.8504 C.ar    1  UNL1        0.0165
      8 C          64.0485   82.6796   11.1730 C.ar    1  UNL1        0.0986
      9 N          63.2906   83.2420   12.3389 N.ar    1  UNL1       -0.2422
     10 C          62.5072   84.5115   12.1822 C.ar    1  UNL1        0.1016
     11 C          62.4817   85.2186   10.8596 C.ar    1  UNL1        0.0497
     12 C          62.4547   84.7737    7.2198 C.3     1  UNL1        0.0050
     13 C          63.2140   85.3635    8.3711 C.3     1  UNL1        0.0266
     14 C          60.7748   90.1761   11.4855 C.3     1  UNL1        0.1307
     15 N          59.4127   90.7824   11.6500 N.3     1  UNL1       -0.3148
     16 H          58.9705   90.8781   10.7359 H       1  UNL1        0.1192
     17 H          59.4998   91.7015   12.0835 H       1  UNL1        0.1192
@<TRIPOS>BOND
     1    12    13    1
     2    13     6    1
     3     6     7   ar
     4     7     8   ar
     5     8     9   ar
     6     9    10   ar
     7    10    11   ar
     8    11     1    1
     9     1     2   ar
    10     2     3   ar
    11     3     4   ar
    12     4    14    1
    13    14    15    1
    14     4     5   ar
    15    11     6   ar
    16     5     1   ar
    17    15    16    1
    18    15    17    1
@<TRIPOS>MOLECULE
*****
 17 18 0 0 0
SMALL
GASTEIGER

@<TRIPOS>ATOM
      1 C          66.2128   93.3011   11.3636 C.ar    1  UNL1        0.1461
      2 C          67.1560   92.7825   10.3190 C.ar    1  UNL1        0.0403
      3 C          67.6153   93.9456    9.4907 C.ar    1  UNL1        0.0375
      4 C          66.9559   95.1832   10.0234 C.ar    1  UNL1        0.1385
      5 O          66.0891   94.7848   11.1810 O.2     1  UNL1       -0.4563
      6 C          64.3443   91.6230   12.0292 C.ar    1  UNL1       -0.0162
      7 C          63.6472   90.8021   13.0732 C.ar    1  UNL1        0.0165
      8 C          64.1213   90.8384   14.4958 C.ar    1  UNL1        0.0986
      9 N          65.2926   91.6955   14.8744 N.ar    1  UNL1       -0.2422
     10 C          65.9897   92.5164   13.8304 C.ar    1  UNL1        0.1016
     11 C          65.5156   92.4802   12.4077 C.ar    1  UNL1        0.0497
     12 C          62.6889   90.7420   10.2310 C.3     1  UNL1        0.0050
     13 C          63.8702   91.5867   10.6065 C.3     1  UNL1        0.0266
     14 C          67.1323   96.5747    9.4919 C.3     1  UNL1        0.1307
     15 N          67.8396   96.7953    8.1877 N.3     1  UNL1       -0.3148
     16 H          68.8181   96.5229    8.2812 H       1  UNL1        0.1192
     17 H          67.7840   97.7815    7.9333 H       1  UNL1        0.1192
@<TRIPOS>BOND
     1    12    13    1
     2    13     6    1
     3     6     7   ar
     4     7     8   ar
     5     8     9   ar
     6     9    10   ar
     7    10    11   ar
     8    11     1    1
     9     1     2   ar
    10     2     3   ar
    11     3     4   ar
    12     4    14    1
    13    14    15    1
    14     4     5   ar
    15    11     6   ar
    16     5     1   ar
    17    15    16    1
    18    15    17    1
@<TRIPOS>MOLECULE
*****
 17 18 0 0 0
SMALL
GASTEIGER

@<TRIPOS>ATOM
      1 C          62.2172   85.6693   10.7486 C.ar    1  UNL1        0.1461
      2 C          62.7454   85.4166    9.3676 C.ar    1  UNL1        0.0403
      3 C          61.7475   85.9530    8.3844 C.ar    1  UNL1        0.0375
      4 C          60.6027   86.5372    9.1577 C.ar    1  UNL1        0.1385
      5 O          60.8930   86.3619   10.6189 O.2     1  UNL1       -0.4563
      6 C          63.1790   83.8546   12.3397 C.ar    1  UNL1       -0.0162
      7 C          63.8562   83.4805   13.6248 C.ar    1  UNL1        0.0165
      8 C          64.2487   84.5470   14.6039 C.ar    1  UNL1        0.0986
      9 N          63.9641   85.9876   14.2978 N.ar    1  UNL1       -0.2422
     10 C          63.2869   86.3617   13.0127 C.ar    1  UNL1        0.1016
     11 C          62.8944   85.2952   12.0337 C.ar    1  UNL1        0.0497
     12 C          63.8328   82.1234   10.5162 C.3     1  UNL1        0.0050
     13 C          62.7865   82.7881   11.3607 C.3     1  UNL1        0.0266
     14 C          59.3819   87.1832    8.5726 C.3     1  UNL1        0.1307
     15 N          58.5583   86.4484    7.5569 N.3     1  UNL1       -0.3148
     16 H          59.1058   86.3164    6.7064 H       1  UNL1        0.1192
     17 H          57.7212   86.9900    7.3417 H       1  UNL1        0.1192
@<TRIPOS>BOND
     1    12    13    1
     2    13     6    1
     3     6     7   ar
     4     7     8   ar
     5     8     9   ar
     6     9    10   ar
     7    10    11   ar
     8    11     1    1
     9     1     2   ar
    10     2     3   ar
    11     3     4   ar
    12     4    14    1
    13    14    15    1
    14     4     5   ar
    15    11     6   ar
    16     5     1   ar
    17    15    16    1
    18    15    17    1
@<TRIPOS>MOLECULE
*****
 17 18 0 0 0
SMALL
GASTEIGER

@<TRIPOS>ATOM
      1 C          62.2698   85.0799   11.2849 C.ar    1  UNL1        0.1461
      2 C          62.5784   85.4234    9.8578 C.ar    1  UNL1        0.0403
      3 C          61.8148   86.6651    9.5042 C.ar    1  UNL1        0.0375
      4 C          61.0342   87.0892   10.7129 C.ar    1  UNL1        0.1385
      5 O          61.3154   86.1094   11.8134 O.2     1  UNL1       -0.4563
      6 C          63.6049   84.1410   13.3063 C.ar    1  UNL1       -0.0162
      7 C          64.1541   82.9732   14.0707 C.ar    1  UNL1        0.0165
      8 C          63.9175   81.5762   13.5782 C.ar    1  UNL1        0.0986
      9 N          63.1316   81.3472   12.3212 N.ar    1  UNL1       -0.2422
     10 C          62.5824   82.5151   11.5568 C.ar    1  UNL1        0.1016
     11 C          62.8190   83.9120   12.0494 C.ar    1  UNL1        0.0497
     12 C          64.7427   85.7763   14.9739 C.3     1  UNL1        0.0050
     13 C          63.8415   85.5380   13.7988 C.3     1  UNL1        0.0266
     14 C          60.1310   88.2832   10.8050 C.3     1  UNL1        0.1307
     15 N          59.3673   88.5503   12.0680 N.3     1  UNL1       -0.3148
     16 H          58.6839   87.8076   12.2157 H       1  UNL1        0.1192
     17 H          58.8849   89.4457   11.9908 H       1  UNL1        0.1192
@<TRIPOS>BOND
     1    12    13    1
     2    13     6    1
     3     6     7   ar
     4     7     8   ar
     5     8     9   ar
     6     9    10   ar
     7    10    11   ar
     8    11     1    1
     9     1     2   ar
    10     2     3   ar
    11     3     4   ar
    12     4    14    1
    13    14    15    1
    14     4     5   ar
    15    11     6   ar
    16     5     1   ar
    17    15    16    1
    18    15    17    1
@<TRIPOS>MOLECULE
*****
 17 18 0 0 0
SMALL
GASTEIGER

@<TRIPOS>ATOM
      1 C          61.5153   87.0096    9.6518 C.ar    1  UNL1        0.1461
      2 C          61.7050   88.4168   10.1353 C.ar    1  UNL1        0.0403
      3 C          60.8409   89.3143    9.3000 C.ar    1  UNL1        0.0375
      4 C          60.1172   88.4619    8.3002 C.ar    1  UNL1        0.1385
      5 O          60.5340   87.0375    8.5176 O.2     1  UNL1       -0.4563
      6 C          63.0250   84.9228    9.3104 C.ar    1  UNL1       -0.0162
      7 C          63.6983   83.7021    9.8639 C.ar    1  UNL1        0.0165
      8 C          63.5353   83.3473   11.3122 C.ar    1  UNL1        0.0986
      9 N          62.6990   84.2132   12.2070 N.ar    1  UNL1       -0.2422
     10 C          62.0257   85.4339   11.6535 C.ar    1  UNL1        0.1016
     11 C          62.1887   85.7888   10.2052 C.ar    1  UNL1        0.0497
     12 C          62.3066   84.6394    6.8298 C.3     1  UNL1        0.0050
     13 C          63.1879   85.2777    7.8621 C.3     1  UNL1        0.0266
     14 C          59.1470   88.9484    7.2648 C.3     1  UNL1        0.1307
     15 N          59.5469   90.0394    6.3162 N.3     1  UNL1       -0.3148
     16 H          59.6911   90.9054    6.8355 H       1  UNL1        0.1192
     17 H          58.8095   90.1761    5.6249 H       1  UNL1        0.1192
@<TRIPOS>BOND
     1    12    13    1
     2    13     6    1
     3     6     7   ar
     4     7     8   ar
     5     8     9   ar
     6     9    10   ar
     7    10    11   ar
     8    11     1    1
     9     1     2   ar
    10     2     3   ar
    11     3     4   ar
    12     4    14    1
    13    14    15    1
    14     4     5   ar
    15    11     6   ar
    16     5     1   ar
    17    15    16    1
    18    15    17    1
@<TRIPOS>MOLECULE
*****
 17 18 0 0 0
SMALL
GASTEIGER

@<TRIPOS>ATOM
      1 C          62.2646   85.5254   11.4346 C.ar    1  UNL1        0.1461
      2 C          63.0839   84.3844   10.9085 C.ar    1  UNL1        0.0403
      3 C          63.4199   83.4850   12.0610 C.ar    1  UNL1        0.0375
      4 C          62.8082   84.0701   13.2994 C.ar    1  UNL1        0.1385
      5 O          62.0942   85.3312   12.9122 O.2     1  UNL1       -0.4563
      6 C          62.1018   88.0728   10.9506 C.ar    1  UNL1       -0.0162
      7 C          61.5498   89.2086   10.1412 C.ar    1  UNL1        0.0165
      8 C          60.6085   88.9328    9.0063 C.ar    1  UNL1        0.0986
      9 N          60.2193   87.5213    8.6808 N.ar    1  UNL1       -0.2422
     10 C          60.7713   86.3855    9.4902 C.ar    1  UNL1        0.1016
     11 C          61.7126   86.6613   10.6251 C.ar    1  UNL1        0.0497
     12 C          63.3524   89.7633   12.4765 C.3     1  UNL1        0.0050
     13 C          63.0430   88.3486   12.0855 C.3     1  UNL1        0.0266
     14 C          62.8952   83.4952   14.6820 C.3     1  UNL1        0.1307
     15 N          62.4049   82.1027   14.9475 N.3     1  UNL1       -0.3148
     16 H          61.3947   82.0660   14.8106 H       1  UNL1        0.1192
     17 H          62.6276   81.8411   15.9079 H       1  UNL1        0.1192
@<TRIPOS>BOND
     1    12    13    1
     2    13     6    1
     3     6     7   ar
     4     7     8   ar
     5     8     9   ar
     6     9    10   ar
     7    10    11   ar
     8    11     1    1
     9     1     2   ar
    10     2     3   ar
    11     3     4   ar
    12     4    14    1
    13    14    15    1
    14     4     5   ar
    15    11     6   ar
    16     5     1   ar
    17    15    16    1
    18    15    17    1
@<TRIPOS>MOLECULE
*****
 17 18 0 0 0
SMALL
GASTEIGER

@<TRIPOS>ATOM
      1 C          62.6632   84.7648   12.7230 C.ar    1  UNL1        0.1461
      2 C          62.5010   83.4000   13.3238 C.ar    1  UNL1        0.0403
      3 C          62.8056   83.4994   14.7892 C.ar    1  UNL1        0.0375
      4 C          63.1562   84.9257   15.0941 C.ar    1  UNL1        0.1385
      5 O          63.0681   85.7077   13.8171 O.2     1  UNL1       -0.4563
      6 C          63.2748   84.4541   10.2171 C.ar    1  UNL1       -0.0162
      7 C          63.0684   84.8130    8.7754 C.ar    1  UNL1        0.0165
      8 C          62.0440   85.8416    8.3979 C.ar    1  UNL1        0.0986
      9 N          61.2259   86.5112    9.4620 N.ar    1  UNL1       -0.2422
     10 C          61.4324   86.1523   10.9037 C.ar    1  UNL1        0.1016
     11 C          62.4568   85.1237   11.2812 C.ar    1  UNL1        0.0497
     12 C          64.0062   81.9677   10.3981 C.3     1  UNL1        0.0050
     13 C          64.2993   83.4255   10.5947 C.3     1  UNL1        0.0266
     14 C          63.5292   85.4737   16.4396 C.3     1  UNL1        0.1307
     15 N          62.4583   85.8233   17.4301 N.3     1  UNL1       -0.3148
     16 H          61.9080   86.6048   17.0741 H       1  UNL1        0.1192
     17 H          62.8882   86.0863   18.3169 H       1  UNL1        0.1192
@<TRIPOS>BOND
     1    12    13    1
     2    13     6    1
     3     6     7   ar
     4     7     8   ar
     5     8     9   ar
     6     9    10   ar
     7    10    11   ar
     8    11     1    1
     9     1     2   ar
    10     2     3   ar
    11     3     4   ar
    12     4    14    1
    13    14    15    1
    14     4     5   ar
    15    11     6   ar
    16     5     1   ar
    17    15    16    1
    18    15    17    1
