@<TRIPOS>MOLECULE
*****
 34 37 0 0 0
SMALL
GASTEIGER

@<TRIPOS>ATOM
      1 C          63.6599   87.3413   13.4118 C.ar    1  UNL1        0.1224
      2 N          63.1174   88.5183   12.6566 N.ar    1  UNL1       -0.2325
      3 C          62.3572   88.3055   11.3811 C.ar    1  UNL1        0.0835
      4 C          61.8148   89.4825   10.6260 C.ar    1  UNL1        0.0000
      5 C          61.0546   89.2697    9.3505 C.ar    1  UNL1       -0.0024
      6 C          60.8368   87.8798    8.8303 C.ar    1  UNL1       -0.0001
      7 C          61.3793   86.7027    9.5854 C.ar    1  UNL1        0.0062
      8 C          62.1394   86.9156   10.8609 C.ar    1  UNL1        0.0735
      9 C          62.6819   85.7385   11.6160 C.ar    1  UNL1        0.2631
     10 O          62.4641   84.3486   11.0958 O.2     1  UNL1       -0.2669
     11 N          63.4421   85.9513   12.8915 N.ar    1  UNL1       -0.2837
     12 C          63.8575   88.4434   15.7562 C.3     1  UNL1        0.0084
     13 C          64.4200   87.5541   14.6872 C.3     1  UNL1        0.0640
     14 C          62.0326   90.8725   11.1463 C.3     1  UNL1        0.0541
     15 C          63.3710   91.2658   11.6974 C.ar    1  UNL1       -0.0177
     16 C          63.6558   91.1055   13.1614 C.ar    1  UNL1       -0.0038
     17 C          64.9943   91.4988   13.7125 C.ar    1  UNL1        0.0043
     18 C          66.0480   92.0524   12.7998 C.ar    1  UNL1        0.0553
     19 C          65.7632   92.2128   11.3357 C.ar    1  UNL1        0.0043
     20 C          64.4247   91.8195   10.7846 C.ar    1  UNL1       -0.0038
     21 C          67.3865   92.4458   13.3509 C.2     1  UNL1        0.2677
     22 O          67.5029   93.6302   14.2640 O.2     1  UNL1       -0.2681
     23 N          68.6084   91.6547   12.9891 N.am    1  UNL1       -0.1934
     24 O          69.9469   92.0481   13.5402 O.3     1  UNL1       -0.2949
     25 H          68.5320   90.8774   12.3898 H       1  UNL1        0.1825
     26 H          69.8463   92.8282   14.1078 H       1  UNL1        0.2414
     27 C          63.9845   84.7742   13.6466 C.3     1  UNL1        0.1148
     28 C          63.0616   83.9129   14.4567 C.3     1  UNL1        0.0510
     29 C          62.7221   82.5292   13.9874 C.ar    1  UNL1       -0.0202
     30 C          61.5128   81.8283   14.5316 C.ar    1  UNL1       -0.0042
     31 C          61.1733   80.4446   14.0623 C.ar    1  UNL1       -0.0003
     32 C          62.0432   79.7619   13.0489 C.ar    1  UNL1       -0.0000
     33 C          63.2526   80.4628   12.5048 C.ar    1  UNL1       -0.0003
     34 C          63.5920   81.8464   12.9740 C.ar    1  UNL1       -0.0042
@<TRIPOS>BOND
     1    12    13    1
     2    13     1    1
     3     1     2   ar
     4     2     3   ar
     5     3     4   ar
     6     4    14    1
     7    14    15    1
     8    15    16   ar
     9    16    17   ar
    10    17    18   ar
    11    18    21    1
    12    21    22    2
    13    21    23   am
    14    23    24    1
    15    18    19   ar
    16    19    20   ar
    17     4     5   ar
    18     5     6   ar
    19     6     7   ar
    20     7     8   ar
    21     8     9   ar
    22     9    10    2
    23     9    11   ar
    24    11    27    1
    25    27    28    1
    26    28    29    1
    27    29    30   ar
    28    30    31   ar
    29    31    32   ar
    30    32    33   ar
    31    33    34   ar
    32    11     1   ar
    33    34    29   ar
    34     8     3   ar
    35    20    15   ar
    36    23    25    1
    37    24    26    1
@<TRIPOS>MOLECULE
*****
 34 37 0 0 0
SMALL
GASTEIGER

@<TRIPOS>ATOM
      1 C          61.2931   89.4887   12.0589 C.ar    1  UNL1        0.1224
      2 N          62.1217   89.5111   13.3091 N.ar    1  UNL1       -0.2325
      3 C          63.3741   90.3349   13.3641 C.ar    1  UNL1        0.0835
      4 C          64.2027   90.3573   14.6143 C.ar    1  UNL1        0.0000
      5 C          65.4550   91.1810   14.6694 C.ar    1  UNL1       -0.0024
      6 C          65.8788   91.9823   13.4743 C.ar    1  UNL1       -0.0001
      7 C          65.0502   91.9599   12.2242 C.ar    1  UNL1        0.0062
      8 C          63.7979   91.1362   12.1691 C.ar    1  UNL1        0.0735
      9 C          62.9693   91.1138   10.9189 C.ar    1  UNL1        0.2631
     10 O          63.3931   91.9151    9.7238 O.2     1  UNL1       -0.2669
     11 N          61.7170   90.2901   10.8638 N.ar    1  UNL1       -0.2837
     12 C          58.7901   89.1562   12.6704 C.3     1  UNL1        0.0084
     13 C          60.0408   88.6650   12.0038 C.3     1  UNL1        0.0640
     14 C          63.7789   89.5559   15.8095 C.3     1  UNL1        0.0541
     15 C          63.6937   88.0611   15.7183 C.ar    1  UNL1       -0.0177
     16 C          64.3519   87.3405   14.5792 C.ar    1  UNL1       -0.0038
     17 C          64.2668   85.8457   14.4881 C.ar    1  UNL1        0.0043
     18 C          63.5235   85.0715   15.5359 C.ar    1  UNL1        0.0553
     19 C          62.8653   85.7921   16.6750 C.ar    1  UNL1        0.0043
     20 C          62.9504   87.2869   16.7662 C.ar    1  UNL1       -0.0038
     21 C          63.4384   83.5767   15.4447 C.2     1  UNL1        0.2677
     22 O          64.6356   82.7358   15.7758 O.2     1  UNL1       -0.2681
     23 N          62.1561   82.9229   15.0226 N.am    1  UNL1       -0.1934
     24 O          62.0710   81.4281   14.9314 O.3     1  UNL1       -0.2949
     25 H          61.3704   83.4748   14.8053 H       1  UNL1        0.1825
     26 H          62.9255   81.0400   15.1769 H       1  UNL1        0.2414
     27 C          60.8884   90.2677    9.6136 C.3     1  UNL1        0.1148
     28 C          60.0304   89.0770    9.3037 C.3     1  UNL1        0.0510
     29 C          60.6581   87.8103    8.8023 C.ar    1  UNL1       -0.0202
     30 C          62.0167   87.4024    9.2900 C.ar    1  UNL1       -0.0042
     31 C          62.6444   86.1357    8.7886 C.ar    1  UNL1       -0.0003
     32 C          61.9135   85.2769    7.7995 C.ar    1  UNL1       -0.0000
     33 C          60.5550   85.6848    7.3118 C.ar    1  UNL1       -0.0003
     34 C          59.9273   86.9515    7.8132 C.ar    1  UNL1       -0.0042
@<TRIPOS>BOND
     1    12    13    1
     2    13     1    1
     3     1     2   ar
     4     2     3   ar
     5     3     4   ar
     6     4    14    1
     7    14    15    1
     8    15    16   ar
     9    16    17   ar
    10    17    18   ar
    11    18    21    1
    12    21    22    2
    13    21    23   am
    14    23    24    1
    15    18    19   ar
    16    19    20   ar
    17     4     5   ar
    18     5     6   ar
    19     6     7   ar
    20     7     8   ar
    21     8     9   ar
    22     9    10    2
    23     9    11   ar
    24    11    27    1
    25    27    28    1
    26    28    29    1
    27    29    30   ar
    28    30    31   ar
    29    31    32   ar
    30    32    33   ar
    31    33    34   ar
    32    11     1   ar
    33    34    29   ar
    34     8     3   ar
    35    20    15   ar
    36    23    25    1
    37    24    26    1
@<TRIPOS>MOLECULE
*****
 34 37 0 0 0
SMALL
GASTEIGER

@<TRIPOS>ATOM
      1 C          63.5262   85.5638   12.2266 C.ar    1  UNL1        0.1224
      2 N          62.8154   86.8842   12.2613 N.ar    1  UNL1       -0.2325
      3 C          62.0717   87.3677   11.0516 C.ar    1  UNL1        0.0835
      4 C          61.3609   88.6882   11.0864 C.ar    1  UNL1        0.0000
      5 C          60.6173   89.1717    9.8768 C.ar    1  UNL1       -0.0024
      6 C          60.5845   88.3347    8.6324 C.ar    1  UNL1       -0.0001
      7 C          61.2953   87.0143    8.5977 C.ar    1  UNL1        0.0062
      8 C          62.0389   86.5308    9.8073 C.ar    1  UNL1        0.0735
      9 C          62.7498   85.2104    9.7726 C.ar    1  UNL1        0.2631
     10 O          62.7170   84.3735    8.5282 O.2     1  UNL1       -0.2669
     11 N          63.4934   84.7269   10.9822 N.ar    1  UNL1       -0.2837
     12 C          64.3742   85.9537   14.6512 C.3     1  UNL1        0.0084
     13 C          64.2698   85.0803   13.4362 C.3     1  UNL1        0.0640
     14 C          61.3937   89.5251   12.3308 C.3     1  UNL1        0.0541
     15 C          62.6584   90.2258   12.7302 C.ar    1  UNL1       -0.0177
     16 C          63.3733   91.1025   11.7452 C.ar    1  UNL1       -0.0038
     17 C          64.6380   91.8032   12.1446 C.ar    1  UNL1        0.0043
     18 C          65.1878   91.6273   13.5290 C.ar    1  UNL1        0.0553
     19 C          64.4729   90.7506   14.5142 C.ar    1  UNL1        0.0043
     20 C          63.2082   90.0498   14.1148 C.ar    1  UNL1       -0.0038
     21 C          66.4525   92.3280   13.9284 C.2     1  UNL1        0.2677
     22 O          66.4103   93.7645   14.3583 O.2     1  UNL1       -0.2681
     23 N          67.7593   91.5923   13.8979 N.am    1  UNL1       -0.1934
     24 O          69.0240   92.2931   14.2973 O.3     1  UNL1       -0.2949
     25 H          67.7869   90.6495   13.6158 H       1  UNL1        0.1825
     26 H          68.8218   93.2087   14.5455 H       1  UNL1        0.2414
     27 C          64.2042   83.4065   10.9474 C.3     1  UNL1        0.1148
     28 C          63.4217   82.1376   10.7813 C.3     1  UNL1        0.0510
     29 C          62.7807   81.4902   11.9729 C.ar    1  UNL1       -0.0202
     30 C          62.7358   79.9948   12.0804 C.ar    1  UNL1       -0.0042
     31 C          62.0948   79.3474   13.2721 C.ar    1  UNL1       -0.0003
     32 C          61.4987   80.1955   14.3562 C.ar    1  UNL1       -0.0000
     33 C          61.5436   81.6909   14.2487 C.ar    1  UNL1       -0.0003
     34 C          62.1846   82.3383   13.0570 C.ar    1  UNL1       -0.0042
@<TRIPOS>BOND
     1    12    13    1
     2    13     1    1
     3     1     2   ar
     4     2     3   ar
     5     3     4   ar
     6     4    14    1
     7    14    15    1
     8    15    16   ar
     9    16    17   ar
    10    17    18   ar
    11    18    21    1
    12    21    22    2
    13    21    23   am
    14    23    24    1
    15    18    19   ar
    16    19    20   ar
    17     4     5   ar
    18     5     6   ar
    19     6     7   ar
    20     7     8   ar
    21     8     9   ar
    22     9    10    2
    23     9    11   ar
    24    11    27    1
    25    27    28    1
    26    28    29    1
    27    29    30   ar
    28    30    31   ar
    29    31    32   ar
    30    32    33   ar
    31    33    34   ar
    32    11     1   ar
    33    34    29   ar
    34     8     3   ar
    35    20    15   ar
    36    23    25    1
    37    24    26    1
@<TRIPOS>MOLECULE
*****
 34 37 0 0 0
SMALL
GASTEIGER

@<TRIPOS>ATOM
      1 C          64.2212   89.9818   13.2585 C.ar    1  UNL1        0.1224
      2 N          63.7294   88.5682   13.1590 N.ar    1  UNL1       -0.2325
      3 C          62.9687   88.1224   11.9455 C.ar    1  UNL1        0.0835
      4 C          62.4769   86.7088   11.8460 C.ar    1  UNL1        0.0000
      5 C          61.7163   86.2629   10.6326 C.ar    1  UNL1       -0.0024
      6 C          61.4474   87.2307    9.5185 C.ar    1  UNL1       -0.0001
      7 C          61.9392   88.6442    9.6179 C.ar    1  UNL1        0.0062
      8 C          62.6998   89.0901   10.8314 C.ar    1  UNL1        0.0735
      9 C          63.1916   90.5037   10.9309 C.ar    1  UNL1        0.2631
     10 O          62.9228   91.4714    9.8168 O.2     1  UNL1       -0.2669
     11 N          63.9523   90.9495   12.1443 N.ar    1  UNL1       -0.2837
     12 C          64.2428   90.8526   15.7061 C.3     1  UNL1        0.0084
     13 C          64.9818   90.4276   14.4719 C.3     1  UNL1        0.0640
     14 C          62.7458   85.7410   12.9602 C.3     1  UNL1        0.0541
     15 C          62.7294   84.2653   12.6920 C.ar    1  UNL1       -0.0177
     16 C          62.2205   83.3185   13.7382 C.ar    1  UNL1       -0.0038
     17 C          62.2040   81.8428   13.4701 C.ar    1  UNL1        0.0043
     18 C          62.6965   81.3138   12.1557 C.ar    1  UNL1        0.0553
     19 C          63.2054   82.2605   11.1094 C.ar    1  UNL1        0.0043
     20 C          63.2219   83.7363   11.3776 C.ar    1  UNL1       -0.0038
     21 C          62.6800   79.8380   11.8876 C.2     1  UNL1        0.2677
     22 O          62.4814   78.8725   13.0182 O.2     1  UNL1       -0.2681
     23 N          62.8621   79.3278   10.4889 N.am    1  UNL1       -0.1934
     24 O          62.8457   77.8521   10.2207 O.3     1  UNL1       -0.2949
     25 H          62.9925   79.9615    9.7468 H       1  UNL1        0.1825
     26 H          62.7081   77.3737   11.0532 H       1  UNL1        0.2414
     27 C          64.4441   92.3631   12.2438 C.3     1  UNL1        0.1148
     28 C          65.9171   92.6439   12.2807 C.3     1  UNL1        0.0510
     29 C          66.6096   93.1781   11.0620 C.ar    1  UNL1       -0.0202
     30 C          66.3584   94.5873   10.6139 C.ar    1  UNL1       -0.0042
     31 C          67.0509   95.1215    9.3952 C.ar    1  UNL1       -0.0003
     32 C          67.9945   94.2464    8.6247 C.ar    1  UNL1       -0.0000
     33 C          68.2457   92.8372    9.0729 C.ar    1  UNL1       -0.0003
     34 C          67.5532   92.3030   10.2915 C.ar    1  UNL1       -0.0042
@<TRIPOS>BOND
     1    12    13    1
     2    13     1    1
     3     1     2   ar
     4     2     3   ar
     5     3     4   ar
     6     4    14    1
     7    14    15    1
     8    15    16   ar
     9    16    17   ar
    10    17    18   ar
    11    18    21    1
    12    21    22    2
    13    21    23   am
    14    23    24    1
    15    18    19   ar
    16    19    20   ar
    17     4     5   ar
    18     5     6   ar
    19     6     7   ar
    20     7     8   ar
    21     8     9   ar
    22     9    10    2
    23     9    11   ar
    24    11    27    1
    25    27    28    1
    26    28    29    1
    27    29    30   ar
    28    30    31   ar
    29    31    32   ar
    30    32    33   ar
    31    33    34   ar
    32    11     1   ar
    33    34    29   ar
    34     8     3   ar
    35    20    15   ar
    36    23    25    1
    37    24    26    1
@<TRIPOS>MOLECULE
*****
 34 37 0 0 0
SMALL
GASTEIGER

@<TRIPOS>ATOM
      1 C          64.0487   89.7705   13.4245 C.ar    1  UNL1        0.1224
      2 N          63.5996   88.3469   13.2773 N.ar    1  UNL1       -0.2325
      3 C          62.9234   87.9005   12.0149 C.ar    1  UNL1        0.0835
      4 C          62.4743   86.4769   11.8677 C.ar    1  UNL1        0.0000
      5 C          61.7981   86.0305   10.6054 C.ar    1  UNL1       -0.0024
      6 C          61.5711   87.0076    9.4903 C.ar    1  UNL1       -0.0001
      7 C          62.0202   88.4312    9.6375 C.ar    1  UNL1        0.0062
      8 C          62.6964   88.8776   10.8998 C.ar    1  UNL1        0.0735
      9 C          63.1455   90.3012   11.0470 C.ar    1  UNL1        0.2631
     10 O          62.9185   91.2784    9.9319 O.2     1  UNL1       -0.2669
     11 N          63.8216   90.7477   12.3093 N.ar    1  UNL1       -0.2837
     12 C          63.9037   90.6034   15.8812 C.3     1  UNL1        0.0084
     13 C          64.7248   90.2169   14.6868 C.3     1  UNL1        0.0640
     14 C          62.7013   85.4997   12.9829 C.3     1  UNL1        0.0541
     15 C          62.7085   84.0267   12.6995 C.ar    1  UNL1       -0.0177
     16 C          63.2318   83.5176   11.3892 C.ar    1  UNL1       -0.0038
     17 C          63.2390   82.0446   11.1059 C.ar    1  UNL1        0.0043
     18 C          62.7229   81.0808   12.1328 C.ar    1  UNL1        0.0553
     19 C          62.1995   81.5899   13.4432 C.ar    1  UNL1        0.0043
     20 C          62.1924   83.0628   13.7265 C.ar    1  UNL1       -0.0038
     21 C          62.7300   79.6078   11.8494 C.2     1  UNL1        0.2677
     22 O          62.5367   78.6278   12.9685 O.2     1  UNL1       -0.2681
     23 N          62.9305   79.1148   10.4470 N.am    1  UNL1       -0.1934
     24 O          62.9377   77.6418   10.1637 O.3     1  UNL1       -0.2949
     25 H          63.0574   79.7580    9.7126 H       1  UNL1        0.1825
     26 H          62.8006   77.1529   10.9901 H       1  UNL1        0.2414
     27 C          64.2707   92.1712   12.4565 C.3     1  UNL1        0.1148
     28 C          65.6869   92.5479   12.1362 C.3     1  UNL1        0.0510
     29 C          66.7119   92.6106   13.2295 C.ar    1  UNL1       -0.0202
     30 C          66.4386   93.4100   14.4689 C.ar    1  UNL1       -0.0042
     31 C          67.4636   93.4727   15.5622 C.ar    1  UNL1       -0.0003
     32 C          68.7620   92.7360   15.4162 C.ar    1  UNL1       -0.0000
     33 C          69.0353   91.9365   14.1768 C.ar    1  UNL1       -0.0003
     34 C          68.0103   91.8738   13.0835 C.ar    1  UNL1       -0.0042
@<TRIPOS>BOND
     1    12    13    1
     2    13     1    1
     3     1     2   ar
     4     2     3   ar
     5     3     4   ar
     6     4    14    1
     7    14    15    1
     8    15    16   ar
     9    16    17   ar
    10    17    18   ar
    11    18    21    1
    12    21    22    2
    13    21    23   am
    14    23    24    1
    15    18    19   ar
    16    19    20   ar
    17     4     5   ar
    18     5     6   ar
    19     6     7   ar
    20     7     8   ar
    21     8     9   ar
    22     9    10    2
    23     9    11   ar
    24    11    27    1
    25    27    28    1
    26    28    29    1
    27    29    30   ar
    28    30    31   ar
    29    31    32   ar
    30    32    33   ar
    31    33    34   ar
    32    11     1   ar
    33    34    29   ar
    34     8     3   ar
    35    20    15   ar
    36    23    25    1
    37    24    26    1
@<TRIPOS>MOLECULE
*****
 34 37 0 0 0
SMALL
GASTEIGER

@<TRIPOS>ATOM
      1 C          61.2759   89.0581   11.5806 C.ar    1  UNL1        0.1224
      2 N          62.2991   89.3211   12.6455 N.ar    1  UNL1       -0.2325
      3 C          63.0849   88.1837   13.2278 C.ar    1  UNL1        0.0835
      4 C          64.1080   88.4467   14.2927 C.ar    1  UNL1        0.0000
      5 C          64.8938   87.3094   14.8750 C.ar    1  UNL1       -0.0024
      6 C          64.6565   85.9092   14.3923 C.ar    1  UNL1       -0.0001
      7 C          63.6334   85.6462   13.3274 C.ar    1  UNL1        0.0062
      8 C          62.8476   86.7835   12.7451 C.ar    1  UNL1        0.0735
      9 C          61.8244   86.5205   11.6802 C.ar    1  UNL1        0.2631
     10 O          61.5871   85.1203   11.1976 O.2     1  UNL1       -0.2669
     11 N          61.0386   87.6578   11.0979 N.ar    1  UNL1       -0.2837
     12 C          59.2090   90.6308   11.6457 C.3     1  UNL1        0.0084
     13 C          60.4901   90.1954   10.9983 C.3     1  UNL1        0.0640
     14 C          64.3453   89.8470   14.7753 C.3     1  UNL1        0.0541
     15 C          65.0173   90.8452   13.8797 C.ar    1  UNL1       -0.0177
     16 C          66.4165   91.2968   14.1767 C.ar    1  UNL1       -0.0038
     17 C          67.0884   92.2950   13.2811 C.ar    1  UNL1        0.0043
     18 C          66.3612   92.8416   12.0885 C.ar    1  UNL1        0.0553
     19 C          64.9619   92.3899   11.7915 C.ar    1  UNL1        0.0043
     20 C          64.2899   91.3918   12.6871 C.ar    1  UNL1       -0.0038
     21 C          67.0331   93.8398   11.1929 C.2     1  UNL1        0.2677
     22 O          66.7232   95.3008   11.3326 O.2     1  UNL1       -0.2681
     23 N          68.0149   93.3770   10.1576 N.am    1  UNL1       -0.1934
     24 O          68.6869   94.3752    9.2620 O.3     1  UNL1       -0.2949
     25 H          68.2183   92.4181   10.0660 H       1  UNL1        0.1825
     26 H          68.3770   95.2675    9.4826 H       1  UNL1        0.2414
     27 C          60.0155   87.3948   10.0330 C.3     1  UNL1        0.1148
     28 C          60.3956   87.4986    8.5858 C.3     1  UNL1        0.0510
     29 C          61.1431   86.3788    7.9244 C.ar    1  UNL1       -0.0202
     30 C          60.4879   85.5783    6.8383 C.ar    1  UNL1       -0.0042
     31 C          61.2353   84.4585    6.1770 C.ar    1  UNL1       -0.0003
     32 C          62.6380   84.1392    6.6018 C.ar    1  UNL1       -0.0000
     33 C          63.2932   84.9398    7.6880 C.ar    1  UNL1       -0.0003
     34 C          62.5458   86.0596    8.3493 C.ar    1  UNL1       -0.0042
@<TRIPOS>BOND
     1    12    13    1
     2    13     1    1
     3     1     2   ar
     4     2     3   ar
     5     3     4   ar
     6     4    14    1
     7    14    15    1
     8    15    16   ar
     9    16    17   ar
    10    17    18   ar
    11    18    21    1
    12    21    22    2
    13    21    23   am
    14    23    24    1
    15    18    19   ar
    16    19    20   ar
    17     4     5   ar
    18     5     6   ar
    19     6     7   ar
    20     7     8   ar
    21     8     9   ar
    22     9    10    2
    23     9    11   ar
    24    11    27    1
    25    27    28    1
    26    28    29    1
    27    29    30   ar
    28    30    31   ar
    29    31    32   ar
    30    32    33   ar
    31    33    34   ar
    32    11     1   ar
    33    34    29   ar
    34     8     3   ar
    35    20    15   ar
    36    23    25    1
    37    24    26    1
@<TRIPOS>MOLECULE
*****
 34 37 0 0 0
SMALL
GASTEIGER

@<TRIPOS>ATOM
      1 C          63.5120   86.2515   13.3702 C.ar    1  UNL1        0.1224
      2 N          63.5205   87.7380   13.1697 N.ar    1  UNL1       -0.2325
      3 C          63.5156   88.6549   14.3569 C.ar    1  UNL1        0.0835
      4 C          63.5241   90.1414   14.1564 C.ar    1  UNL1        0.0000
      5 C          63.5192   91.0584   15.3434 C.ar    1  UNL1       -0.0024
      6 C          63.5058   90.4888   16.7310 C.ar    1  UNL1       -0.0001
      7 C          63.4973   89.0023   16.9315 C.ar    1  UNL1        0.0062
      8 C          63.5022   88.0853   15.7444 C.ar    1  UNL1        0.0735
      9 C          63.4937   86.5988   15.9449 C.ar    1  UNL1        0.2631
     10 O          63.4804   86.0292   17.3324 O.2     1  UNL1       -0.2669
     11 N          63.4986   85.6819   14.7578 N.ar    1  UNL1       -0.2837
     12 C          62.4538   85.4619   11.1326 C.3     1  UNL1        0.0084
     13 C          63.5169   85.3345   12.1831 C.3     1  UNL1        0.0640
     14 C          63.5375   90.7110   12.7687 C.3     1  UNL1        0.0541
     15 C          62.6103   90.1636   11.7243 C.ar    1  UNL1       -0.0177
     16 C          63.1635   89.6261   10.4379 C.ar    1  UNL1       -0.0038
     17 C          62.2363   89.0786    9.3935 C.ar    1  UNL1        0.0043
     18 C          60.7561   89.0687    9.6356 C.ar    1  UNL1        0.0553
     19 C          60.2029   89.6062   10.9221 C.ar    1  UNL1        0.0043
     20 C          61.1300   90.1536   11.9665 C.ar    1  UNL1       -0.0038
     21 C          59.8289   88.5212    8.5912 C.2     1  UNL1        0.2677
     22 O          59.5066   89.3355    7.3733 O.2     1  UNL1       -0.2681
     23 N          59.2241   87.1596    8.7647 N.am    1  UNL1       -0.1934
     24 O          58.2970   86.6121    7.7203 O.3     1  UNL1       -0.2949
     25 H          59.4357   86.6252    9.5640 H       1  UNL1        0.1825
     26 H          58.1966   87.2600    7.0054 H       1  UNL1        0.2414
     27 C          63.4902   84.1954   14.9583 C.3     1  UNL1        0.1148
     28 C          62.2605   83.4014   14.6305 C.3     1  UNL1        0.0510
     29 C          62.3644   82.1811   13.7644 C.ar    1  UNL1       -0.0202
     30 C          61.8614   80.8601   14.2663 C.ar    1  UNL1       -0.0042
     31 C          61.9654   79.6399   13.4002 C.ar    1  UNL1       -0.0003
     32 C          62.5722   79.7406   12.0321 C.ar    1  UNL1       -0.0000
     33 C          63.0752   81.0616   11.5303 C.ar    1  UNL1       -0.0003
     34 C          62.9713   82.2819   12.3964 C.ar    1  UNL1       -0.0042
@<TRIPOS>BOND
     1    12    13    1
     2    13     1    1
     3     1     2   ar
     4     2     3   ar
     5     3     4   ar
     6     4    14    1
     7    14    15    1
     8    15    16   ar
     9    16    17   ar
    10    17    18   ar
    11    18    21    1
    12    21    22    2
    13    21    23   am
    14    23    24    1
    15    18    19   ar
    16    19    20   ar
    17     4     5   ar
    18     5     6   ar
    19     6     7   ar
    20     7     8   ar
    21     8     9   ar
    22     9    10    2
    23     9    11   ar
    24    11    27    1
    25    27    28    1
    26    28    29    1
    27    29    30   ar
    28    30    31   ar
    29    31    32   ar
    30    32    33   ar
    31    33    34   ar
    32    11     1   ar
    33    34    29   ar
    34     8     3   ar
    35    20    15   ar
    36    23    25    1
    37    24    26    1
@<TRIPOS>MOLECULE
*****
 34 37 0 0 0
SMALL
GASTEIGER

@<TRIPOS>ATOM
      1 C          62.3847   86.8755   10.8928 C.ar    1  UNL1        0.1224
      2 N          62.6530   88.1855   11.5724 N.ar    1  UNL1       -0.2325
      3 C          63.3144   88.2105   12.9186 C.ar    1  UNL1        0.0835
      4 C          63.5827   89.5205   13.5982 C.ar    1  UNL1        0.0000
      5 C          64.2440   89.5455   14.9443 C.ar    1  UNL1       -0.0024
      6 C          64.6371   88.2605   15.6107 C.ar    1  UNL1       -0.0001
      7 C          64.3688   86.9504   14.9311 C.ar    1  UNL1        0.0062
      8 C          63.7075   86.9255   13.5850 C.ar    1  UNL1        0.0735
      9 C          63.4392   85.6155   12.9054 C.ar    1  UNL1        0.2631
     10 O          63.8322   84.3304   13.5718 O.2     1  UNL1       -0.2669
     11 N          62.7778   85.5905   11.5593 N.ar    1  UNL1       -0.2837
     12 C          60.6517   87.8476    9.2189 C.3     1  UNL1        0.0084
     13 C          61.7234   86.8505    9.5467 C.3     1  UNL1        0.0640
     14 C          63.1896   90.8056   12.9317 C.3     1  UNL1        0.0541
     15 C          64.2187   91.6178   12.2029 C.ar    1  UNL1       -0.0177
     16 C          64.1436   91.7600   10.7116 C.ar    1  UNL1       -0.0038
     17 C          65.1727   92.5722    9.9828 C.ar    1  UNL1        0.0043
     18 C          66.2770   93.2423   10.7453 C.ar    1  UNL1        0.0553
     19 C          66.3522   93.1002   12.2367 C.ar    1  UNL1        0.0043
     20 C          65.3230   92.2879   12.9655 C.ar    1  UNL1       -0.0038
     21 C          67.3061   94.0546   10.0165 C.2     1  UNL1        0.2677
     22 O          68.6632   93.4761    9.7445 O.2     1  UNL1       -0.2681
     23 N          66.9783   95.4452    9.5598 N.am    1  UNL1       -0.1934
     24 O          68.0074   96.2574    8.8310 O.3     1  UNL1       -0.2949
     25 H          66.0876   95.8248    9.7384 H       1  UNL1        0.1825
     26 H          68.8223   95.7394    8.7389 H       1  UNL1        0.2414
     27 C          62.5095   84.2805   10.8796 C.3     1  UNL1        0.1148
     28 C          63.5726   83.2229   10.8432 C.3     1  UNL1        0.0510
     29 C          63.2302   81.8031   11.1850 C.ar    1  UNL1       -0.0202
     30 C          63.2209   80.7547   10.1123 C.ar    1  UNL1       -0.0042
     31 C          62.8785   79.3349   10.4542 C.ar    1  UNL1       -0.0003
     32 C          62.5453   78.9635   11.8687 C.ar    1  UNL1       -0.0000
     33 C          62.5545   80.0119   12.9414 C.ar    1  UNL1       -0.0003
     34 C          62.8969   81.4317   12.5996 C.ar    1  UNL1       -0.0042
@<TRIPOS>BOND
     1    12    13    1
     2    13     1    1
     3     1     2   ar
     4     2     3   ar
     5     3     4   ar
     6     4    14    1
     7    14    15    1
     8    15    16   ar
     9    16    17   ar
    10    17    18   ar
    11    18    21    1
    12    21    22    2
    13    21    23   am
    14    23    24    1
    15    18    19   ar
    16    19    20   ar
    17     4     5   ar
    18     5     6   ar
    19     6     7   ar
    20     7     8   ar
    21     8     9   ar
    22     9    10    2
    23     9    11   ar
    24    11    27    1
    25    27    28    1
    26    28    29    1
    27    29    30   ar
    28    30    31   ar
    29    31    32   ar
    30    32    33   ar
    31    33    34   ar
    32    11     1   ar
    33    34    29   ar
    34     8     3   ar
    35    20    15   ar
    36    23    25    1
    37    24    26    1
@<TRIPOS>MOLECULE
*****
 34 37 0 0 0
SMALL
GASTEIGER

@<TRIPOS>ATOM
      1 C          60.5279   89.0661   10.4627 C.ar    1  UNL1        0.1224
      2 N          61.4418   88.6778   11.5871 N.ar    1  UNL1       -0.2325
      3 C          62.1003   87.3300   11.5870 C.ar    1  UNL1        0.0835
      4 C          63.0141   86.9417   12.7114 C.ar    1  UNL1        0.0000
      5 C          63.6726   85.5940   12.7113 C.ar    1  UNL1       -0.0024
      6 C          63.4173   84.6346   11.5869 C.ar    1  UNL1       -0.0001
      7 C          62.5035   85.0229   10.4626 C.ar    1  UNL1        0.0062
      8 C          61.8450   86.3706   10.4626 C.ar    1  UNL1        0.0735
      9 C          60.9312   86.7589    9.3383 C.ar    1  UNL1        0.2631
     10 O          60.6758   85.7995    8.2139 O.2     1  UNL1       -0.2669
     11 N          60.2726   88.1066    9.3383 N.ar    1  UNL1       -0.2837
     12 C          59.0377   90.8421   11.6352 C.3     1  UNL1        0.0084
     13 C          59.8694   90.4138   10.4627 C.3     1  UNL1        0.0640
     14 C          63.2694   87.9012   13.8358 C.3     1  UNL1        0.0541
     15 C          63.9359   89.2169   13.5623 C.ar    1  UNL1       -0.0177
     16 C          64.9698   89.7455   14.5118 C.ar    1  UNL1       -0.0038
     17 C          65.6364   91.0612   14.2383 C.ar    1  UNL1        0.0043
     18 C          65.2690   91.8482   13.0153 C.ar    1  UNL1        0.0553
     19 C          64.2351   91.3195   12.0658 C.ar    1  UNL1        0.0043
     20 C          63.5686   90.0039   12.3392 C.ar    1  UNL1       -0.0038
     21 C          65.9356   93.1638   12.7418 C.2     1  UNL1        0.2677
     22 O          66.1980   94.1199   13.8675 O.2     1  UNL1       -0.2681
     23 N          66.3397   93.5233   11.3428 N.am    1  UNL1       -0.1934
     24 O          67.0063   94.8390   11.0693 O.3     1  UNL1       -0.2949
     25 H          66.1675   92.8958   10.6040 H       1  UNL1        0.1825
     26 H          67.1001   95.3326   11.8990 H       1  UNL1        0.2414
     27 C          59.3588   88.4949    8.2139 C.3     1  UNL1        0.1148
     28 C          59.9202   88.7587    6.8482 C.3     1  UNL1        0.0510
     29 C          59.4022   89.9066    6.0333 C.ar    1  UNL1       -0.0202
     30 C          57.9271   90.1682    5.9590 C.ar    1  UNL1       -0.0042
     31 C          57.4092   91.3161    5.1440 C.ar    1  UNL1       -0.0003
     32 C          58.3663   92.2023    4.4035 C.ar    1  UNL1       -0.0000
     33 C          59.8414   91.9406    4.4778 C.ar    1  UNL1       -0.0003
     34 C          60.3594   90.7928    5.2927 C.ar    1  UNL1       -0.0042
@<TRIPOS>BOND
     1    12    13    1
     2    13     1    1
     3     1     2   ar
     4     2     3   ar
     5     3     4   ar
     6     4    14    1
     7    14    15    1
     8    15    16   ar
     9    16    17   ar
    10    17    18   ar
    11    18    21    1
    12    21    22    2
    13    21    23   am
    14    23    24    1
    15    18    19   ar
    16    19    20   ar
    17     4     5   ar
    18     5     6   ar
    19     6     7   ar
    20     7     8   ar
    21     8     9   ar
    22     9    10    2
    23     9    11   ar
    24    11    27    1
    25    27    28    1
    26    28    29    1
    27    29    30   ar
    28    30    31   ar
    29    31    32   ar
    30    32    33   ar
    31    33    34   ar
    32    11     1   ar
    33    34    29   ar
    34     8     3   ar
    35    20    15   ar
    36    23    25    1
    37    24    26    1
