@<TRIPOS>MOLECULE
*****
 45 52 0 0 0
SMALL
GASTEIGER

@<TRIPOS>ATOM
      1 C          61.8138   87.7293    9.5182 C.3     1  UNL1        0.2256
      2 C          61.3427   86.6825    8.5528 C.3     1  UNL1        0.0607
      3 O          62.1199   86.5545   10.3992 O.3     1  UNL1       -0.2976
      4 C          62.6955   87.0751   11.6827 C.3     1  UNL1        0.2754
      5 O          62.5845   85.5803   11.6259 O.3     1  UNL1       -0.3478
      6 C          63.1809   86.3798   12.9200 C.3     1  UNL1        0.1465
      7 C          63.2547   84.9286   13.2924 C.3     1  UNL1        0.0285
      8 C          63.8354   84.8330   14.6721 C.3     1  UNL1        0.0234
      9 C          64.1205   86.2251   15.1525 C.3     1  UNL1        0.0937
     10 N          63.7160   87.1811   14.0697 N.am    1  UNL1       -0.2734
     11 C          63.7658   88.6777   13.9820 C.2     1  UNL1        0.2444
     12 O          64.3009   89.4790   15.1316 O.2     1  UNL1       -0.2731
     13 C          63.2804   89.3730   12.7447 C.3     1  UNL1        0.1604
     14 N          62.7453   88.5717   11.5950 N.am    1  UNL1       -0.2268
     15 C          62.2004   88.9760   10.2572 C.2     1  UNL1        0.2719
     16 O          62.0657   90.3804    9.7480 O.2     1  UNL1       -0.2704
     17 H          62.9146   85.1998   12.4548 H       1  UNL1        0.2145
     18 C          60.0644   88.5550    7.7839 C.2     1  UNL1        0.2252
     19 O          59.1242   87.4688    8.2151 O.2     1  UNL1       -0.2750
     20 N          61.4093   88.6853    8.4354 N.am    1  UNL1       -0.2790
     21 H          62.0264   89.3982    8.1524 H       1  UNL1        0.1519
     22 C          56.3824   91.2824    5.3335 C.3     1  UNL1        0.0896
     23 N          57.8188   90.8747    5.4759 N.3     1  UNL1       -0.2717
     24 C          58.2234   89.9187    6.5587 C.3     1  UNL1        0.0812
     25 C          59.6599   89.5110    6.7010 C.3     1  UNL1        0.0928
     26 C          60.6919   90.0593    5.7606 C.3     1  UNL1        0.0159
     27 C          60.2873   91.0152    4.6778 C.3     1  UNL1        0.0344
     28 C          61.3194   91.5635    3.7373 C.2     1  UNL1       -0.0342
     29 C          62.7558   91.1558    3.8797 C.2     1  UNL1       -0.0078
     30 C          63.7877   91.7041    2.9393 C.2     1  UNL1        0.0006
     31 C          63.3832   92.6601    1.8565 C.2     1  UNL1        0.0153
     32 C          61.9468   93.0678    1.7141 C.2     1  UNL1        0.0662
     33 N          61.1217   93.9519    0.8266 N.2     1  UNL1       -0.2482
     34 C          59.6965   93.8707    1.2874 C.2     1  UNL1        0.0907
     35 C          59.4783   92.9272    2.5122 C.2     1  UNL1       -0.0148
     36 C          60.9148   92.5195    2.6545 C.3     1  UNL1        0.0783
     37 C          58.4463   92.3789    3.4526 C.3     1  UNL1        0.0405
     38 C          58.8509   91.4229    4.5354 C.3     1  UNL1        0.0653
     39 C          63.3302   90.8696   12.6570 C.3     1  UNL1        0.0557
     40 C          64.5990   91.5549   12.2442 C.ar    1  UNL1       -0.0200
     41 C          65.7158   91.7232   13.2314 C.ar    1  UNL1       -0.0042
     42 C          66.9847   92.4086   12.8187 C.ar    1  UNL1       -0.0003
     43 C          67.1368   92.9256   11.4188 C.ar    1  UNL1       -0.0000
     44 C          66.0200   92.7573   10.4317 C.ar    1  UNL1       -0.0003
     45 C          64.7511   92.0719   10.8444 C.ar    1  UNL1       -0.0042
@<TRIPOS>BOND
     1    22    23    1
     2    23    24    1
     3    24    25    1
     4    25    18    1
     5    18    19    2
     6    18    20   am
     7    20     1    1
     8     1     2    1
     9     1     3    1
    10     3     4    1
    11     4     5    1
    12     4     6    1
    13     6     7    1
    14     7     8    1
    15     8     9    1
    16     9    10    1
    17    10    11   am
    18    11    12    2
    19    11    13    1
    20    13    39    1
    21    39    40    1
    22    40    41   ar
    23    41    42   ar
    24    42    43   ar
    25    43    44   ar
    26    44    45   ar
    27    13    14    1
    28    14    15   am
    29    15    16    2
    30    25    26    1
    31    27    26    1
    32    27    28    1
    33    28    29    2
    34    29    30    1
    35    30    31    2
    36    31    32    1
    37    32    33    2
    38    33    34    1
    39    34    35    2
    40    35    36    1
    41    35    37    1
    42    38    37    1
    43    38    23    1
    44    15     1    1
    45    38    27    1
    46    14     4    1
    47    36    28    1
    48    10     6    1
    49    45    40   ar
    50    36    32    1
    51    20    21    1
    52     5    17    1
