@<TRIPOS>MOLECULE
*****
 33 37 0 0 0
SMALL
GASTEIGER

@<TRIPOS>ATOM
      1 O          61.9954   90.6736   12.1283 O.2     1  UNL1       -0.2728
      2 C          62.5614   89.2937   12.2890 C.2     1  UNL1        0.2488
      3 N          62.0634   88.1735   11.4247 N.am    1  UNL1       -0.2779
      4 C          60.9994   88.4331   10.3998 C.3     1  UNL1        0.0935
      5 C          60.5013   87.3129    9.5354 C.3     1  UNL1        0.0219
      6 C          61.0672   85.9331    9.6960 C.3     1  UNL1        0.0078
      7 C          62.1312   85.6735   10.7210 C.3     1  UNL1        0.0419
      8 C          62.6293   86.7937   11.5853 C.3     1  UNL1        0.0953
      9 C          62.6972   84.2937   10.8816 C.ar    1  UNL1       -0.0209
     10 C          62.0185   83.3048   11.7824 C.ar    1  UNL1       -0.0042
     11 C          62.5846   81.9250   11.9431 C.ar    1  UNL1       -0.0003
     12 C          63.8293   81.5341   11.2029 C.ar    1  UNL1       -0.0000
     13 C          64.5080   82.5230   10.3021 C.ar    1  UNL1       -0.0003
     14 C          63.9420   83.9028   10.1415 C.ar    1  UNL1       -0.0042
     15 C          63.6254   89.0342   13.3139 C.3     1  UNL1        0.1946
     16 N          64.1836   90.1696   14.1196 N.ar    1  UNL1       -0.2808
     17 C          64.0094   90.3727   15.5956 C.ar    1  UNL1        0.2927
     18 O          63.2465   89.4760   16.5250 O.2     1  UNL1       -0.2594
     19 S          64.7322   91.6299   15.9789 S.2     1  UNL1       -0.0260
     20 C          65.3531   92.2038   14.7399 C.ar    1  UNL1        0.0498
     21 C          66.1834   93.4316   14.5097 C.ar    1  UNL1        0.0089
     22 C          66.6746   93.7569   13.1303 C.ar    1  UNL1        0.0120
     23 C          66.3356   92.8544   11.9811 C.ar    1  UNL1        0.0591
     24 CL         66.8268   93.1798   10.6016 Cl      1  UNL1       -0.0822
     25 C          65.5053   91.6266   12.2114 C.ar    1  UNL1        0.0292
     26 C          65.0141   91.3013   13.5908 C.ar    1  UNL1        0.0704
     27 C          63.6933   86.5341   12.6102 C.3     1  UNL1        0.0926
     28 N          63.5189   85.4286   13.6089 N.3     1  UNL1       -0.2670
     29 C          62.2430   85.3178   14.3898 C.3     1  UNL1        0.1047
     30 C          62.0685   84.2123   15.3886 C.3     1  UNL1        0.1595
     31 O          63.1700   83.2177   15.6065 O.3     1  UNL1       -0.3508
     32 C          64.4459   83.3286   14.8256 C.3     1  UNL1        0.1595
     33 C          64.6204   84.4340   13.8268 C.3     1  UNL1        0.1047
@<TRIPOS>BOND
     1     1     2    2
     2     2    15    1
     3    15    16    1
     4    16    17   ar
     5    17    18    2
     6    17    19   ar
     7    19    20   ar
     8    20    21   ar
     9    21    22   ar
    10    22    23   ar
    11    23    24    1
    12    23    25   ar
    13    25    26   ar
    14     2     3   am
    15     3     4    1
    16     4     5    1
    17     5     6    1
    18     6     7    1
    19     7     9    1
    20     9    10   ar
    21    10    11   ar
    22    11    12   ar
    23    12    13   ar
    24    13    14   ar
    25     7     8    1
    26     8    27    1
    27    27    28    1
    28    28    29    1
    29    29    30    1
    30    30    31    1
    31    31    32    1
    32    32    33    1
    33    26    16   ar
    34     8     3    1
    35    33    28    1
    36    26    20   ar
    37    14     9   ar
@<TRIPOS>MOLECULE
*****
 33 37 0 0 0
SMALL
GASTEIGER

@<TRIPOS>ATOM
      1 O          63.5652   90.4909   16.0203 O.2     1  UNL1       -0.2728
      2 C          63.6895   89.2461   15.1925 C.2     1  UNL1        0.2488
      3 N          63.3793   87.9090   15.7976 N.am    1  UNL1       -0.2779
      4 C          62.9448   87.8168   17.2303 C.3     1  UNL1        0.0935
      5 C          62.6345   86.4798   17.8354 C.3     1  UNL1        0.0219
      6 C          62.7588   85.2350   17.0077 C.3     1  UNL1        0.0078
      7 C          63.1933   85.3272   15.5750 C.3     1  UNL1        0.0419
      8 C          63.5035   86.6642   14.9699 C.3     1  UNL1        0.0953
      9 C          63.3176   84.0825   14.7473 C.ar    1  UNL1       -0.0209
     10 C          64.6037   83.7790   14.0376 C.ar    1  UNL1       -0.0042
     11 C          64.7279   82.5341   13.2098 C.ar    1  UNL1       -0.0003
     12 C          63.5660   81.5929   13.0919 C.ar    1  UNL1       -0.0000
     13 C          62.2798   81.8964   13.8016 C.ar    1  UNL1       -0.0003
     14 C          62.1557   83.1411   14.6293 C.ar    1  UNL1       -0.0042
     15 C          64.1240   89.3384   13.7599 C.3     1  UNL1        0.1946
     16 N          64.5808   90.6519   13.1977 N.ar    1  UNL1       -0.2808
     17 C          64.0567   91.3094   11.9555 C.ar    1  UNL1        0.2927
     18 O          62.9838   90.7688   11.0574 O.2     1  UNL1       -0.2594
     19 S          64.7939   92.6024   11.7692 S.2     1  UNL1       -0.0260
     20 C          65.7736   92.7440   12.8962 C.ar    1  UNL1        0.0498
     21 C          66.7686   93.8149   13.2326 C.ar    1  UNL1        0.0089
     22 C          67.6319   93.6803   14.4518 C.ar    1  UNL1        0.0120
     23 C          67.5002   92.4748   15.3347 C.ar    1  UNL1        0.0591
     24 CL         68.3635   92.3402   16.5540 Cl      1  UNL1       -0.0822
     25 C          66.5052   91.4039   14.9984 C.ar    1  UNL1        0.0292
     26 C          65.6419   91.5385   13.7791 C.ar    1  UNL1        0.0704
     27 C          63.9381   86.7565   13.5372 C.3     1  UNL1        0.0926
     28 N          62.9249   86.6407   12.4372 N.3     1  UNL1       -0.2670
     29 C          62.7530   85.3402   11.7099 C.3     1  UNL1        0.1047
     30 C          61.7397   85.2244   10.6098 C.3     1  UNL1        0.1595
     31 O          60.8985   86.4090   10.2371 O.3     1  UNL1       -0.3508
     32 C          61.0705   87.7095   10.9646 C.3     1  UNL1        0.1595
     33 C          62.0837   87.8254   12.0646 C.3     1  UNL1        0.1047
@<TRIPOS>BOND
     1     1     2    2
     2     2    15    1
     3    15    16    1
     4    16    17   ar
     5    17    18    2
     6    17    19   ar
     7    19    20   ar
     8    20    21   ar
     9    21    22   ar
    10    22    23   ar
    11    23    24    1
    12    23    25   ar
    13    25    26   ar
    14     2     3   am
    15     3     4    1
    16     4     5    1
    17     5     6    1
    18     6     7    1
    19     7     9    1
    20     9    10   ar
    21    10    11   ar
    22    11    12   ar
    23    12    13   ar
    24    13    14   ar
    25     7     8    1
    26     8    27    1
    27    27    28    1
    28    28    29    1
    29    29    30    1
    30    30    31    1
    31    31    32    1
    32    32    33    1
    33    26    16   ar
    34     8     3    1
    35    33    28    1
    36    26    20   ar
    37    14     9   ar
@<TRIPOS>MOLECULE
*****
 33 37 0 0 0
SMALL
GASTEIGER

@<TRIPOS>ATOM
      1 O          64.2294   88.9789   14.9351 O.2     1  UNL1       -0.2728
      2 C          63.5800   88.8329   13.5908 C.2     1  UNL1        0.2488
      3 N          63.4321   87.4741   12.9729 N.am    1  UNL1       -0.2779
      4 C          63.9337   86.2613   13.6993 C.3     1  UNL1        0.0935
      5 C          63.7858   84.9025   13.0814 C.3     1  UNL1        0.0219
      6 C          63.1365   84.7565   11.7372 C.3     1  UNL1        0.0078
      7 C          62.6349   85.9692   11.0108 C.3     1  UNL1        0.0419
      8 C          62.7828   87.3281   11.6287 C.3     1  UNL1        0.0953
      9 C          61.9855   85.8233    9.6666 C.ar    1  UNL1       -0.0209
     10 C          60.5678   86.2703    9.4661 C.ar    1  UNL1       -0.0042
     11 C          59.9184   86.1243    8.1217 C.ar    1  UNL1       -0.0003
     12 C          60.6868   85.5313    6.9780 C.ar    1  UNL1       -0.0000
     13 C          62.1045   85.0844    7.1786 C.ar    1  UNL1       -0.0003
     14 C          62.7539   85.2303    8.5229 C.ar    1  UNL1       -0.0042
     15 C          63.0785   90.0457   12.8645 C.3     1  UNL1        0.1946
     16 N          64.0442   91.0974   12.4048 N.ar    1  UNL1       -0.2808
     17 C          64.1821   91.6159   11.0040 C.ar    1  UNL1        0.2927
     18 O          63.3785   91.1738    9.8171 O.2     1  UNL1       -0.2594
     19 S          65.2647   92.6541   10.9986 S.2     1  UNL1       -0.0260
     20 C          65.7959   92.7773   12.3960 C.ar    1  UNL1        0.0498
     21 C          66.8689   93.6413   12.9894 C.ar    1  UNL1        0.0089
     22 C          67.1876   93.5431   14.4518 C.ar    1  UNL1        0.0120
     23 C          66.4333   92.5809   15.3209 C.ar    1  UNL1        0.0591
     24 CL         66.7521   92.4827   16.7834 Cl      1  UNL1       -0.0822
     25 C          65.3603   91.7170   14.7275 C.ar    1  UNL1        0.0292
     26 C          65.0415   91.8152   13.2651 C.ar    1  UNL1        0.0704
     27 C          62.2812   88.5409   10.9024 C.3     1  UNL1        0.0926
     28 N          60.9551   89.1389   11.2678 N.3     1  UNL1       -0.2670
     29 C          60.5751   90.4941   10.7490 C.3     1  UNL1        0.1047
     30 C          59.2489   91.0923   11.1144 C.3     1  UNL1        0.1595
     31 O          58.3027   90.3353   11.9985 O.3     1  UNL1       -0.3508
     32 C          58.6827   88.9801   12.5172 C.3     1  UNL1        0.1595
     33 C          60.0089   88.3819   12.1518 C.3     1  UNL1        0.1047
@<TRIPOS>BOND
     1     1     2    2
     2     2    15    1
     3    15    16    1
     4    16    17   ar
     5    17    18    2
     6    17    19   ar
     7    19    20   ar
     8    20    21   ar
     9    21    22   ar
    10    22    23   ar
    11    23    24    1
    12    23    25   ar
    13    25    26   ar
    14     2     3   am
    15     3     4    1
    16     4     5    1
    17     5     6    1
    18     6     7    1
    19     7     9    1
    20     9    10   ar
    21    10    11   ar
    22    11    12   ar
    23    12    13   ar
    24    13    14   ar
    25     7     8    1
    26     8    27    1
    27    27    28    1
    28    28    29    1
    29    29    30    1
    30    30    31    1
    31    31    32    1
    32    32    33    1
    33    26    16   ar
    34     8     3    1
    35    33    28    1
    36    26    20   ar
    37    14     9   ar
@<TRIPOS>MOLECULE
*****
 33 37 0 0 0
SMALL
GASTEIGER

@<TRIPOS>ATOM
      1 O          64.4448   87.7828   15.4469 O.2     1  UNL1       -0.2728
      2 C          63.8691   87.8918   14.0660 C.2     1  UNL1        0.2488
      3 N          63.4845   86.6523   13.3139 N.am    1  UNL1       -0.2779
      4 C          63.6757   85.3039   13.9425 C.3     1  UNL1        0.0935
      5 C          63.2911   84.0644   13.1904 C.3     1  UNL1        0.0219
      6 C          62.7153   84.1733   11.8096 C.3     1  UNL1        0.0078
      7 C          62.5242   85.5217   11.1809 C.3     1  UNL1        0.0419
      8 C          62.9087   86.7612   11.9331 C.3     1  UNL1        0.0953
      9 C          61.9485   85.6307    9.8001 C.ar    1  UNL1       -0.0209
     10 C          62.7431   85.1627    8.6171 C.ar    1  UNL1       -0.0042
     11 C          62.1672   85.2718    7.2362 C.ar    1  UNL1       -0.0003
     12 C          60.7968   85.8487    7.0385 C.ar    1  UNL1       -0.0000
     13 C          60.0022   86.3166    8.2216 C.ar    1  UNL1       -0.0003
     14 C          60.5780   86.2076    9.6023 C.ar    1  UNL1       -0.0042
     15 C          63.6779   89.2402   13.4374 C.3     1  UNL1        0.1946
     16 N          64.2729   90.4583   14.0796 N.ar    1  UNL1       -0.2808
     17 C          64.1003   90.8740   15.5104 C.ar    1  UNL1        0.2927
     18 O          63.3023   90.1448   16.5504 O.2     1  UNL1       -0.2594
     19 S          64.8657   92.1471   15.7187 S.2     1  UNL1       -0.0260
     20 C          65.5114   92.5181   14.4166 C.ar    1  UNL1        0.0498
     21 C          66.3856   93.6716   14.0225 C.ar    1  UNL1        0.0089
     22 C          66.8934   93.7812   12.6154 C.ar    1  UNL1        0.0120
     23 C          66.5271   92.7374   11.6023 C.ar    1  UNL1        0.0591
     24 CL         67.0349   92.8471   10.1952 Cl      1  UNL1       -0.0822
     25 C          65.6529   91.5840   11.9964 C.ar    1  UNL1        0.0292
     26 C          65.1450   91.4743   13.4035 C.ar    1  UNL1        0.0704
     27 C          62.7176   88.1096   11.3044 C.3     1  UNL1        0.0926
     28 N          61.4103   88.8293   11.4560 N.3     1  UNL1       -0.2670
     29 C          61.1984   90.1503   10.7776 C.3     1  UNL1        0.1047
     30 C          59.8911   90.8701   10.9292 C.3     1  UNL1        0.1595
     31 O          58.7958   90.2690   11.7592 O.3     1  UNL1       -0.3508
     32 C          59.0078   88.9480   12.4376 C.3     1  UNL1        0.1595
     33 C          60.3150   88.2282   12.2860 C.3     1  UNL1        0.1047
@<TRIPOS>BOND
     1     1     2    2
     2     2    15    1
     3    15    16    1
     4    16    17   ar
     5    17    18    2
     6    17    19   ar
     7    19    20   ar
     8    20    21   ar
     9    21    22   ar
    10    22    23   ar
    11    23    24    1
    12    23    25   ar
    13    25    26   ar
    14     2     3   am
    15     3     4    1
    16     4     5    1
    17     5     6    1
    18     6     7    1
    19     7     9    1
    20     9    10   ar
    21    10    11   ar
    22    11    12   ar
    23    12    13   ar
    24    13    14   ar
    25     7     8    1
    26     8    27    1
    27    27    28    1
    28    28    29    1
    29    29    30    1
    30    30    31    1
    31    31    32    1
    32    32    33    1
    33    26    16   ar
    34     8     3    1
    35    33    28    1
    36    26    20   ar
    37    14     9   ar
@<TRIPOS>MOLECULE
*****
 33 37 0 0 0
SMALL
GASTEIGER

@<TRIPOS>ATOM
      1 O          62.5291   90.9328   11.8914 O.2     1  UNL1       -0.2728
      2 C          63.0443   89.6163   12.3930 C.2     1  UNL1        0.2488
      3 N          62.4823   88.3355   11.8513 N.am    1  UNL1       -0.2779
      4 C          61.4051   88.3710   10.8080 C.3     1  UNL1        0.0935
      5 C          60.8431   87.0901   10.2663 C.3     1  UNL1        0.0219
      6 C          61.3582   85.7737   10.7679 C.3     1  UNL1        0.0078
      7 C          62.4354   85.7381   11.8112 C.3     1  UNL1        0.0419
      8 C          62.9974   87.0190   12.3529 C.3     1  UNL1        0.0953
      9 C          62.9505   84.4217   12.3128 C.ar    1  UNL1       -0.0209
     10 C          64.1557   83.7959   11.6757 C.ar    1  UNL1       -0.0042
     11 C          64.6708   82.4794   12.1774 C.ar    1  UNL1       -0.0003
     12 C          63.9808   81.7888   13.3163 C.ar    1  UNL1       -0.0000
     13 C          62.7756   82.4146   13.9534 C.ar    1  UNL1       -0.0003
     14 C          62.2605   83.7310   13.4516 C.ar    1  UNL1       -0.0042
     15 C          64.1214   89.5809   13.4363 C.3     1  UNL1        0.1946
     16 N          64.7111   90.8611   13.9494 N.ar    1  UNL1       -0.2808
     17 C          64.7135   91.3207   15.3773 C.ar    1  UNL1        0.2927
     18 O          64.1266   90.5809   16.5427 O.2     1  UNL1       -0.2594
     19 S          65.4058   92.6501   15.4350 S.2     1  UNL1       -0.0260
     20 C          65.8313   93.0121   14.0429 C.ar    1  UNL1        0.0498
     21 C          66.5542   94.2057   13.4928 C.ar    1  UNL1        0.0089
     22 C          66.8478   94.2936   12.0245 C.ar    1  UNL1        0.0120
     23 C          66.4184   93.1878   11.1063 C.ar    1  UNL1        0.0591
     24 CL         66.7120   93.2758    9.6379 Cl      1  UNL1       -0.0822
     25 C          65.6955   91.9943   11.6564 C.ar    1  UNL1        0.0292
     26 C          65.4019   91.9064   13.1248 C.ar    1  UNL1        0.0704
     27 C          64.0745   86.9834   13.3962 C.3     1  UNL1        0.0926
     28 N          63.7207   86.7277   14.8312 N.3     1  UNL1       -0.2670
     29 C          63.9482   85.3710   15.4294 C.3     1  UNL1        0.1047
     30 C          63.5944   85.1152   16.8645 C.3     1  UNL1        0.1595
     31 O          63.0129   86.2159   17.7013 O.3     1  UNL1       -0.3508
     32 C          62.7854   87.5725   17.1031 C.3     1  UNL1        0.1595
     33 C          63.1393   87.8284   15.6680 C.3     1  UNL1        0.1047
@<TRIPOS>BOND
     1     1     2    2
     2     2    15    1
     3    15    16    1
     4    16    17   ar
     5    17    18    2
     6    17    19   ar
     7    19    20   ar
     8    20    21   ar
     9    21    22   ar
    10    22    23   ar
    11    23    24    1
    12    23    25   ar
    13    25    26   ar
    14     2     3   am
    15     3     4    1
    16     4     5    1
    17     5     6    1
    18     6     7    1
    19     7     9    1
    20     9    10   ar
    21    10    11   ar
    22    11    12   ar
    23    12    13   ar
    24    13    14   ar
    25     7     8    1
    26     8    27    1
    27    27    28    1
    28    28    29    1
    29    29    30    1
    30    30    31    1
    31    31    32    1
    32    32    33    1
    33    26    16   ar
    34     8     3    1
    35    33    28    1
    36    26    20   ar
    37    14     9   ar
@<TRIPOS>MOLECULE
*****
 33 37 0 0 0
SMALL
GASTEIGER

@<TRIPOS>ATOM
      1 O          64.6885   95.6375   -3.5056 O.2     1  UNL1       -0.2728
      2 C          63.8292   94.7946   -2.6104 C.2     1  UNL1        0.2488
      3 N          63.9820   94.8861   -1.1210 N.am    1  UNL1       -0.2779
      4 C          64.9939   95.8204   -0.5268 C.3     1  UNL1        0.0935
      5 C          65.1467   95.9118    0.9626 C.3     1  UNL1        0.0219
      6 C          64.2875   95.0690    1.8578 C.3     1  UNL1        0.0078
      7 C          63.2755   94.1347    1.2636 C.3     1  UNL1        0.0419
      8 C          63.1228   94.0433   -0.2258 C.3     1  UNL1        0.0953
      9 C          62.4163   93.2919    2.1587 C.ar    1  UNL1       -0.0209
     10 C          60.9922   93.6849    2.4187 C.ar    1  UNL1       -0.0042
     11 C          60.1330   92.8419    3.3139 C.ar    1  UNL1       -0.0003
     12 C          60.6979   91.6060    3.9490 C.ar    1  UNL1       -0.0000
     13 C          62.1219   91.2130    3.6890 C.ar    1  UNL1       -0.0003
     14 C          62.9811   92.0559    2.7939 C.ar    1  UNL1       -0.0042
     15 C          62.8174   93.8604   -3.2047 C.3     1  UNL1        0.1946
     16 N          62.3245   94.0802   -4.6042 N.ar    1  UNL1       -0.2808
     17 C          63.1273   93.9060   -5.8593 C.ar    1  UNL1        0.2927
     18 O          64.5640   93.4814   -5.9351 O.2     1  UNL1       -0.2594
     19 S          62.2413   94.2309   -7.0251 S.2     1  UNL1       -0.0260
     20 C          60.8908   94.6060   -6.4907 C.ar    1  UNL1        0.0498
     21 C          59.6209   95.0203   -7.1731 C.ar    1  UNL1        0.0089
     22 C          58.4025   95.3414   -6.3593 C.ar    1  UNL1        0.0120
     23 C          58.4540   95.2482   -4.8631 C.ar    1  UNL1        0.0591
     24 CL         57.2355   95.5694   -4.0493 Cl      1  UNL1       -0.0822
     25 C          59.7239   94.8339   -4.1806 C.ar    1  UNL1        0.0292
     26 C          60.9423   94.5128   -4.9944 C.ar    1  UNL1        0.0704
     27 C          62.1108   93.1090   -0.8200 C.3     1  UNL1        0.0926
     28 N          60.6536   93.4629   -0.7881 N.3     1  UNL1       -0.2670
     29 C          60.2326   94.9000   -0.7015 C.3     1  UNL1        0.1047
     30 C          58.7752   95.2540   -0.6695 C.3     1  UNL1        0.1595
     31 O          57.7389   94.1708   -0.7242 O.3     1  UNL1       -0.3508
     32 C          58.1600   92.7337   -0.8108 C.3     1  UNL1        0.1595
     33 C          59.6173   92.3797   -0.8428 C.3     1  UNL1        0.1047
@<TRIPOS>BOND
     1     1     2    2
     2     2    15    1
     3    15    16    1
     4    16    17   ar
     5    17    18    2
     6    17    19   ar
     7    19    20   ar
     8    20    21   ar
     9    21    22   ar
    10    22    23   ar
    11    23    24    1
    12    23    25   ar
    13    25    26   ar
    14     2     3   am
    15     3     4    1
    16     4     5    1
    17     5     6    1
    18     6     7    1
    19     7     9    1
    20     9    10   ar
    21    10    11   ar
    22    11    12   ar
    23    12    13   ar
    24    13    14   ar
    25     7     8    1
    26     8    27    1
    27    27    28    1
    28    28    29    1
    29    29    30    1
    30    30    31    1
    31    31    32    1
    32    32    33    1
    33    26    16   ar
    34     8     3    1
    35    33    28    1
    36    26    20   ar
    37    14     9   ar
@<TRIPOS>MOLECULE
*****
 33 37 0 0 0
SMALL
GASTEIGER

@<TRIPOS>ATOM
      1 O          60.9268   91.2301   11.3625 O.2     1  UNL1       -0.2728
      2 C          61.7848   90.0171   11.5693 C.2     1  UNL1        0.2488
      3 N          61.3507   88.6894   11.0228 N.am    1  UNL1       -0.2779
      4 C          60.0586   88.5746   10.2696 C.3     1  UNL1        0.0935
      5 C          59.6245   87.2469    9.7231 C.3     1  UNL1        0.0219
      6 C          60.4824   86.0339    9.9298 C.3     1  UNL1        0.0078
      7 C          61.7745   86.1488   10.6830 C.3     1  UNL1        0.0419
      8 C          62.2086   87.4765   11.2295 C.3     1  UNL1        0.0953
      9 C          62.6325   84.9359   10.8898 C.ar    1  UNL1       -0.0209
     10 C          62.5214   84.1463   12.1603 C.ar    1  UNL1       -0.0042
     11 C          63.3795   82.9334   12.3669 C.ar    1  UNL1       -0.0003
     12 C          64.3486   82.5101   11.3031 C.ar    1  UNL1       -0.0000
     13 C          64.4597   83.2997   10.0326 C.ar    1  UNL1       -0.0003
     14 C          63.6016   84.5126    9.8260 C.ar    1  UNL1       -0.0042
     15 C          63.0769   90.1320   12.3225 C.3     1  UNL1        0.1946
     16 N          64.0259   91.2528   12.0172 N.ar    1  UNL1       -0.2808
     17 C          64.2287   91.8962   10.6775 C.ar    1  UNL1        0.2927
     18 O          63.5181   91.5318    9.4077 O.2     1  UNL1       -0.2594
     19 S          65.2669   92.9680   10.8304 S.2     1  UNL1       -0.0260
     20 C          65.7058   92.9870   12.2647 C.ar    1  UNL1        0.0498
     21 C          66.7047   93.8326   12.9975 C.ar    1  UNL1        0.0089
     22 C          66.9366   93.6181   14.4638 C.ar    1  UNL1        0.0120
     23 C          66.1696   92.5580   15.1973 C.ar    1  UNL1        0.0591
     24 CL         66.4016   92.3436   16.6637 Cl      1  UNL1       -0.0822
     25 C          65.1707   91.7125   14.4645 C.ar    1  UNL1        0.0292
     26 C          64.9388   91.9269   12.9982 C.ar    1  UNL1        0.0704
     27 C          63.5007   87.5913   11.9827 C.3     1  UNL1        0.0926
     28 N          63.5312   87.3443   13.4619 N.3     1  UNL1       -0.2670
     29 C          63.7010   85.9491   13.9859 C.3     1  UNL1        0.1047
     30 C          63.7314   85.7021   15.4652 C.3     1  UNL1        0.1595
     31 O          63.5920   86.8502   16.4203 O.3     1  UNL1       -0.3508
     32 C          63.4222   88.2454   15.8962 C.3     1  UNL1        0.1595
     33 C          63.3917   88.4925   14.4170 C.3     1  UNL1        0.1047
@<TRIPOS>BOND
     1     1     2    2
     2     2    15    1
     3    15    16    1
     4    16    17   ar
     5    17    18    2
     6    17    19   ar
     7    19    20   ar
     8    20    21   ar
     9    21    22   ar
    10    22    23   ar
    11    23    24    1
    12    23    25   ar
    13    25    26   ar
    14     2     3   am
    15     3     4    1
    16     4     5    1
    17     5     6    1
    18     6     7    1
    19     7     9    1
    20     9    10   ar
    21    10    11   ar
    22    11    12   ar
    23    12    13   ar
    24    13    14   ar
    25     7     8    1
    26     8    27    1
    27    27    28    1
    28    28    29    1
    29    29    30    1
    30    30    31    1
    31    31    32    1
    32    32    33    1
    33    26    16   ar
    34     8     3    1
    35    33    28    1
    36    26    20   ar
    37    14     9   ar
@<TRIPOS>MOLECULE
*****
 33 37 0 0 0
SMALL
GASTEIGER

@<TRIPOS>ATOM
      1 O          64.1556   83.3719    9.5887 O.2     1  UNL1       -0.2728
      2 C          63.5017   84.4991   10.3317 C.2     1  UNL1        0.2488
      3 N          62.4746   85.3520    9.6479 N.am    1  UNL1       -0.2779
      4 C          62.1014   85.0777    8.2212 C.3     1  UNL1        0.0935
      5 C          61.0743   85.9306    7.5374 C.3     1  UNL1        0.0219
      6 C          60.4204   87.0578    8.2802 C.3     1  UNL1        0.0078
      7 C          60.7936   87.3320    9.7069 C.3     1  UNL1        0.0419
      8 C          61.8207   86.4791   10.3907 C.3     1  UNL1        0.0953
      9 C          60.1398   88.4592   10.4498 C.ar    1  UNL1       -0.0209
     10 C          60.2354   89.8602    9.9227 C.ar    1  UNL1       -0.0042
     11 C          59.5814   90.9874   10.6657 C.ar    1  UNL1       -0.0003
     12 C          58.8320   90.7135   11.9359 C.ar    1  UNL1       -0.0000
     13 C          58.7364   89.3124   12.4630 C.ar    1  UNL1       -0.0003
     14 C          59.3902   88.1853   11.7200 C.ar    1  UNL1       -0.0042
     15 C          63.8750   84.7733   11.7584 C.3     1  UNL1        0.1946
     16 N          63.3814   83.8702   12.8497 N.ar    1  UNL1       -0.2808
     17 C          63.1311   84.2650   14.2750 C.ar    1  UNL1        0.2927
     18 O          63.3304   85.6320   14.8593 O.2     1  UNL1       -0.2594
     19 S          62.6466   83.0526   15.0134 S.2     1  UNL1       -0.0260
     20 C          62.5974   81.9085   14.0445 C.ar    1  UNL1        0.0498
     21 C          62.1978   80.4720   14.2071 C.ar    1  UNL1        0.0089
     22 C          62.2524   79.5407   13.0325 C.ar    1  UNL1        0.0120
     23 C          62.7065   80.0461   11.6952 C.ar    1  UNL1        0.0591
     24 CL         62.7611   79.1148   10.5205 Cl      1  UNL1       -0.0822
     25 C          63.1062   81.4827   11.5326 C.ar    1  UNL1        0.0292
     26 C          63.0516   82.4139   12.7072 C.ar    1  UNL1        0.0704
     27 C          62.1939   86.7534   11.8174 C.3     1  UNL1        0.0926
     28 N          62.8819   88.0362   12.1794 N.3     1  UNL1       -0.2670
     29 C          62.8383   89.2024   11.2371 C.3     1  UNL1        0.1047
     30 C          63.5264   90.4853   11.5991 C.3     1  UNL1        0.1595
     31 O          64.2580   90.6019   12.9033 O.3     1  UNL1       -0.3508
     32 C          64.3016   89.4356   13.8456 C.3     1  UNL1        0.1595
     33 C          63.6136   88.1528   13.4837 C.3     1  UNL1        0.1047
@<TRIPOS>BOND
     1     1     2    2
     2     2    15    1
     3    15    16    1
     4    16    17   ar
     5    17    18    2
     6    17    19   ar
     7    19    20   ar
     8    20    21   ar
     9    21    22   ar
    10    22    23   ar
    11    23    24    1
    12    23    25   ar
    13    25    26   ar
    14     2     3   am
    15     3     4    1
    16     4     5    1
    17     5     6    1
    18     6     7    1
    19     7     9    1
    20     9    10   ar
    21    10    11   ar
    22    11    12   ar
    23    12    13   ar
    24    13    14   ar
    25     7     8    1
    26     8    27    1
    27    27    28    1
    28    28    29    1
    29    29    30    1
    30    30    31    1
    31    31    32    1
    32    32    33    1
    33    26    16   ar
    34     8     3    1
    35    33    28    1
    36    26    20   ar
    37    14     9   ar
@<TRIPOS>MOLECULE
*****
 33 37 0 0 0
SMALL
GASTEIGER

@<TRIPOS>ATOM
      1 O          61.2679   86.2572   11.2821 O.2     1  UNL1       -0.2728
      2 C          62.3235   86.9174   12.1189 C.2     1  UNL1        0.2488
      3 N          62.5823   88.3880   11.9765 N.am    1  UNL1       -0.2779
      4 C          61.7857   89.1984   10.9974 C.3     1  UNL1        0.0935
      5 C          62.0446   90.6690   10.8550 C.3     1  UNL1        0.0219
      6 C          63.1001   91.3292   11.6917 C.3     1  UNL1        0.0078
      7 C          63.8967   90.5188   12.6708 C.3     1  UNL1        0.0419
      8 C          63.6378   89.0482   12.8132 C.3     1  UNL1        0.0953
      9 C          64.9522   91.1790   13.5075 C.ar    1  UNL1       -0.0209
     10 C          64.6700   91.5170   14.9414 C.ar    1  UNL1       -0.0042
     11 C          65.7256   92.1772   15.7781 C.ar    1  UNL1       -0.0003
     12 C          67.0633   92.4993   15.1808 C.ar    1  UNL1       -0.0000
     13 C          67.3455   92.1612   13.7469 C.ar    1  UNL1       -0.0003
     14 C          66.2900   91.5011   12.9103 C.ar    1  UNL1       -0.0042
     15 C          63.1200   86.1070   13.0979 C.3     1  UNL1        0.1946
     16 N          62.7463   84.6799   13.3698 N.ar    1  UNL1       -0.2808
     17 C          61.9981   84.1775   14.5688 C.ar    1  UNL1        0.2927
     18 O          61.4920   85.0139   15.7065 O.2     1  UNL1       -0.2594
     19 S          61.8447   82.6918   14.4303 S.2     1  UNL1       -0.0260
     20 C          62.4981   82.2760   13.1458 C.ar    1  UNL1        0.0498
     21 C          62.6577   80.9373   12.4882 C.ar    1  UNL1        0.0089
     22 C          63.3746   80.8273   11.1753 C.ar    1  UNL1        0.0120
     23 C          63.9318   82.0561   10.5198 C.ar    1  UNL1        0.0591
     24 CL         64.6487   81.9461    9.2067 Cl      1  UNL1       -0.0822
     25 C          63.7723   83.3948   11.1773 C.ar    1  UNL1        0.0292
     26 C          63.0554   83.5047   12.4903 C.ar    1  UNL1        0.0704
     27 C          64.4344   88.2378   13.7923 C.3     1  UNL1        0.0926
     28 N          63.9106   88.0104   15.1793 N.3     1  UNL1       -0.2670
     29 C          64.0885   86.6748   15.8385 C.3     1  UNL1        0.1047
     30 C          63.5647   86.4473   17.2256 C.3     1  UNL1        0.1595
     31 O          62.8631   87.5555   17.9535 O.3     1  UNL1       -0.3508
     32 C          62.6853   88.8911   17.2942 C.3     1  UNL1        0.1595
     33 C          63.2090   89.1186   15.9072 C.3     1  UNL1        0.1047
@<TRIPOS>BOND
     1     1     2    2
     2     2    15    1
     3    15    16    1
     4    16    17   ar
     5    17    18    2
     6    17    19   ar
     7    19    20   ar
     8    20    21   ar
     9    21    22   ar
    10    22    23   ar
    11    23    24    1
    12    23    25   ar
    13    25    26   ar
    14     2     3   am
    15     3     4    1
    16     4     5    1
    17     5     6    1
    18     6     7    1
    19     7     9    1
    20     9    10   ar
    21    10    11   ar
    22    11    12   ar
    23    12    13   ar
    24    13    14   ar
    25     7     8    1
    26     8    27    1
    27    27    28    1
    28    28    29    1
    29    29    30    1
    30    30    31    1
    31    31    32    1
    32    32    33    1
    33    26    16   ar
    34     8     3    1
    35    33    28    1
    36    26    20   ar
    37    14     9   ar
