@<TRIPOS>MOLECULE
*****
 34 38 0 0 0
SMALL
GASTEIGER

@<TRIPOS>ATOM
      1 C          62.6850   86.7415   11.8523 C.2     1  UNL1        0.2506
      2 O          63.4507   87.4008   12.9609 O.2     1  UNL1       -0.2699
      3 N          61.6943   87.5330   11.0511 N.am    1  UNL1       -0.2724
      4 C          60.9285   86.8738    9.9425 C.3     1  UNL1        0.1231
      5 C          59.9379   87.6653    9.1412 C.3     1  UNL1        0.1351
      6 C          59.1721   87.0060    8.0326 C.3     1  UNL1        0.0339
      7 O          59.7130   89.1162    9.4486 O.3     1  UNL1       -0.3527
      8 C          60.4787   89.7754   10.5571 C.3     1  UNL1        0.1621
      9 C          61.4694   88.9839   11.3584 C.3     1  UNL1        0.1096
     10 C          63.5847   80.9381   10.6230 C.3     1  UNL1        0.0311
     11 C          63.3598   82.3889   10.9303 C.ar    1  UNL1       -0.0203
     12 C          63.1817   83.3735    9.8128 C.ar    1  UNL1       -0.0040
     13 C          62.9568   84.8243   10.1201 C.ar    1  UNL1        0.0058
     14 C          62.9099   85.2906   11.5450 C.ar    1  UNL1        0.0729
     15 C          63.0879   84.3061   12.6625 C.ar    1  UNL1        0.1069
     16 C          63.3129   82.8553   12.3552 C.ar    1  UNL1        0.0168
     17 N          63.0410   84.7724   14.0875 N.ar    1  UNL1       -0.1477
     18 N          64.1846   85.3582   14.8616 N.ar    1  UNL1       -0.1447
     19 C          63.6927   85.6826   16.2410 C.ar    1  UNL1        0.1446
     20 C          62.2451   85.2973   16.3194 C.ar    1  UNL1        0.1446
     21 N          61.8424   84.7347   14.9885 N.ar    1  UNL1       -0.1447
     22 C          62.2351   89.6432   12.4670 C.3     1  UNL1        0.0487
     23 C          63.3502   90.5938   12.1462 C.ar    1  UNL1       -0.0203
     24 C          63.4409   91.2105   10.7819 C.ar    1  UNL1       -0.0042
     25 C          64.5560   92.1611   10.4612 C.ar    1  UNL1       -0.0002
     26 C          65.5804   92.4950   11.5047 C.ar    1  UNL1        0.0030
     27 C          65.4897   91.8783   12.8690 C.ar    1  UNL1        0.0355
     28 C          64.3746   90.9277   13.1898 C.ar    1  UNL1       -0.0012
     29 C          66.5141   92.2122   13.9127 C.ar    1  UNL1        0.1622
     30 N          66.0846   92.4956   15.3216 N.ar    1  UNL1       -0.2250
     31 C          67.1089   92.8295   16.3653 C.ar    1  UNL1        0.1022
     32 C          68.5629   92.8801   16.0000 C.ar    1  UNL1        0.0414
     33 C          68.9925   92.5967   14.5910 C.ar    1  UNL1        0.1022
     34 N          67.9681   92.2627   13.5474 N.ar    1  UNL1       -0.2250
@<TRIPOS>BOND
     1    10    11    1
     2    11    12   ar
     3    12    13   ar
     4    13    14   ar
     5    14     1    1
     6     1     2    2
     7     1     3   am
     8     3     4    1
     9     4     5    1
    10     5     6    1
    11     5     7    1
    12     7     8    1
    13     8     9    1
    14     9    22    1
    15    22    23    1
    16    23    24   ar
    17    24    25   ar
    18    25    26   ar
    19    26    27   ar
    20    27    29    1
    21    29    30   ar
    22    30    31   ar
    23    31    32   ar
    24    32    33   ar
    25    33    34   ar
    26    27    28   ar
    27    14    15   ar
    28    15    17    1
    29    17    18   ar
    30    18    19   ar
    31    19    20   ar
    32    20    21   ar
    33    15    16   ar
    34    16    11   ar
    35     9     3    1
    36    28    23   ar
    37    21    17   ar
    38    34    29   ar
@<TRIPOS>MOLECULE
*****
 34 38 0 0 0
SMALL
GASTEIGER

@<TRIPOS>ATOM
      1 C          63.5387   87.6445   13.3158 C.2     1  UNL1        0.2506
      2 O          63.7575   88.6550   12.2291 O.2     1  UNL1       -0.2699
      3 N          63.4020   88.0931   14.7405 N.am    1  UNL1       -0.2724
      4 C          63.1832   87.0825   15.8273 C.3     1  UNL1        0.1231
      5 C          63.0465   87.5311   17.2521 C.3     1  UNL1        0.1351
      6 C          62.8277   86.5206   18.3389 C.3     1  UNL1        0.0339
      7 O          63.1286   88.9902   17.5902 O.3     1  UNL1       -0.3527
      8 C          63.3474   90.0007   16.5035 C.3     1  UNL1        0.1621
      9 C          63.4841   89.5522   15.0786 C.3     1  UNL1        0.1096
     10 C          63.2104   81.8081   11.9634 C.3     1  UNL1        0.0311
     11 C          63.2924   83.2672   12.3015 C.ar    1  UNL1       -0.0203
     12 C          64.1727   83.7284   13.4250 C.ar    1  UNL1       -0.0040
     13 C          64.2548   85.1875   13.7631 C.ar    1  UNL1        0.0058
     14 C          63.4566   86.1854   12.9777 C.ar    1  UNL1        0.0729
     15 C          62.5763   85.7243   11.8541 C.ar    1  UNL1        0.1069
     16 C          62.4942   84.2652   11.5160 C.ar    1  UNL1        0.0168
     17 N          61.7781   86.7222   11.0686 N.ar    1  UNL1       -0.1477
     18 N          60.5701   87.4655   11.5568 N.ar    1  UNL1       -0.1447
     19 C          60.0930   88.3547   10.4470 C.ar    1  UNL1        0.1446
     20 C          61.0063   88.1610    9.2729 C.ar    1  UNL1        0.1446
     21 N          62.0476   87.1521    9.6571 N.ar    1  UNL1       -0.1447
     22 C          63.7029   90.5627   13.9920 C.3     1  UNL1        0.0487
     23 C          65.0423   91.2201   13.8377 C.ar    1  UNL1       -0.0203
     24 C          66.1036   91.0129   14.8772 C.ar    1  UNL1       -0.0042
     25 C          67.4431   91.6702   14.7229 C.ar    1  UNL1       -0.0002
     26 C          67.7212   92.5348   13.5290 C.ar    1  UNL1        0.0030
     27 C          66.6599   92.7419   12.4895 C.ar    1  UNL1        0.0355
     28 C          65.3204   92.0846   12.6438 C.ar    1  UNL1       -0.0012
     29 C          66.9379   93.6064   11.2956 C.ar    1  UNL1        0.1622
     30 N          67.6146   93.0249   10.0899 N.ar    1  UNL1       -0.2250
     31 C          67.8927   93.8894    8.8960 C.ar    1  UNL1        0.1022
     32 C          67.4941   95.3354    8.9079 C.ar    1  UNL1        0.0414
     33 C          66.8174   95.9170   10.1137 C.ar    1  UNL1        0.1022
     34 N          66.5393   95.0524   11.3076 N.ar    1  UNL1       -0.2250
@<TRIPOS>BOND
     1    10    11    1
     2    11    12   ar
     3    12    13   ar
     4    13    14   ar
     5    14     1    1
     6     1     2    2
     7     1     3   am
     8     3     4    1
     9     4     5    1
    10     5     6    1
    11     5     7    1
    12     7     8    1
    13     8     9    1
    14     9    22    1
    15    22    23    1
    16    23    24   ar
    17    24    25   ar
    18    25    26   ar
    19    26    27   ar
    20    27    29    1
    21    29    30   ar
    22    30    31   ar
    23    31    32   ar
    24    32    33   ar
    25    33    34   ar
    26    27    28   ar
    27    14    15   ar
    28    15    17    1
    29    17    18   ar
    30    18    19   ar
    31    19    20   ar
    32    20    21   ar
    33    15    16   ar
    34    16    11   ar
    35     9     3    1
    36    28    23   ar
    37    21    17   ar
    38    34    29   ar
@<TRIPOS>MOLECULE
*****
 34 38 0 0 0
SMALL
GASTEIGER

@<TRIPOS>ATOM
      1 C          63.1334   87.1803   12.6121 C.2     1  UNL1        0.2506
      2 O          63.8092   87.5830   13.8892 O.2     1  UNL1       -0.2699
      3 N          62.4612   88.2160   11.7604 N.am    1  UNL1       -0.2724
      4 C          61.7854   87.8133   10.4832 C.3     1  UNL1        0.1231
      5 C          61.1132   88.8490    9.6315 C.3     1  UNL1        0.1351
      6 C          60.4373   88.4463    8.3543 C.3     1  UNL1        0.0339
      7 O          61.1168   90.2874   10.0569 O.3     1  UNL1       -0.3527
      8 C          61.7925   90.6901   11.3340 C.3     1  UNL1        0.1621
      9 C          62.4648   89.6544   12.1858 C.3     1  UNL1        0.1096
     10 C          63.1191   81.4267   10.9104 C.3     1  UNL1        0.0311
     11 C          63.1227   82.8651   11.3358 C.ar    1  UNL1       -0.0203
     12 C          63.1666   83.9524   10.3035 C.ar    1  UNL1       -0.0040
     13 C          63.1702   85.3908   10.7289 C.ar    1  UNL1        0.0058
     14 C          63.1298   85.7419   12.1867 C.ar    1  UNL1        0.0729
     15 C          63.0859   84.6546   13.2190 C.ar    1  UNL1        0.1069
     16 C          63.0823   83.2162   12.7936 C.ar    1  UNL1        0.0168
     17 N          63.0455   85.0056   14.6768 N.ar    1  UNL1       -0.1477
     18 N          64.2264   85.3590   15.5316 N.ar    1  UNL1       -0.1447
     19 C          63.7280   85.6367   16.9189 C.ar    1  UNL1        0.1446
     20 C          62.2390   85.4549   16.9214 C.ar    1  UNL1        0.1446
     21 N          61.8173   85.0649   15.5358 N.ar    1  UNL1       -0.1447
     22 C          63.1406   90.0571   13.4629 C.3     1  UNL1        0.0487
     23 C          64.4525   90.7831   13.4207 C.ar    1  UNL1       -0.0203
     24 C          65.4481   90.5979   14.5273 C.ar    1  UNL1       -0.0042
     25 C          66.7600   91.3239   14.4850 C.ar    1  UNL1       -0.0002
     26 C          67.0764   92.2350   13.3362 C.ar    1  UNL1        0.0030
     27 C          66.0808   92.4202   12.2297 C.ar    1  UNL1        0.0355
     28 C          64.7689   91.6942   12.2719 C.ar    1  UNL1       -0.0012
     29 C          66.3971   93.3313   11.0808 C.ar    1  UNL1        0.1622
     30 N          67.4978   92.9785   10.1248 N.ar    1  UNL1       -0.2250
     31 C          67.8141   93.8895    8.9760 C.ar    1  UNL1        0.1022
     32 C          67.0298   95.1536    8.7832 C.ar    1  UNL1        0.0414
     33 C          65.9291   95.5065    9.7392 C.ar    1  UNL1        0.1022
     34 N          65.6128   94.5953   10.8881 N.ar    1  UNL1       -0.2250
@<TRIPOS>BOND
     1    10    11    1
     2    11    12   ar
     3    12    13   ar
     4    13    14   ar
     5    14     1    1
     6     1     2    2
     7     1     3   am
     8     3     4    1
     9     4     5    1
    10     5     6    1
    11     5     7    1
    12     7     8    1
    13     8     9    1
    14     9    22    1
    15    22    23    1
    16    23    24   ar
    17    24    25   ar
    18    25    26   ar
    19    26    27   ar
    20    27    29    1
    21    29    30   ar
    22    30    31   ar
    23    31    32   ar
    24    32    33   ar
    25    33    34   ar
    26    27    28   ar
    27    14    15   ar
    28    15    17    1
    29    17    18   ar
    30    18    19   ar
    31    19    20   ar
    32    20    21   ar
    33    15    16   ar
    34    16    11   ar
    35     9     3    1
    36    28    23   ar
    37    21    17   ar
    38    34    29   ar
@<TRIPOS>MOLECULE
*****
 34 38 0 0 0
SMALL
GASTEIGER

@<TRIPOS>ATOM
      1 C          62.7197   88.5194   11.6189 C.2     1  UNL1        0.2506
      2 O          62.6799   90.0188   11.6088 O.2     1  UNL1       -0.2699
      3 N          63.3638   87.7940   12.7629 N.am    1  UNL1       -0.2724
      4 C          63.4036   86.2945   12.7732 C.3     1  UNL1        0.1231
      5 C          64.0478   85.5691   13.9172 C.3     1  UNL1        0.1351
      6 C          64.0875   84.0696   13.9274 C.3     1  UNL1        0.0339
      7 O          64.6522   86.3431   15.0510 O.3     1  UNL1       -0.3527
      8 C          64.6125   87.8426   15.0408 C.3     1  UNL1        0.1621
      9 C          63.9683   88.5680   13.8968 C.3     1  UNL1        0.1096
     10 C          60.3019   85.4234    7.0836 C.3     1  UNL1        0.0311
     11 C          60.9064   86.1974    8.2175 C.ar    1  UNL1       -0.0203
     12 C          62.3444   85.9855    8.5878 C.ar    1  UNL1       -0.0040
     13 C          62.9488   86.7595    9.7216 C.ar    1  UNL1        0.0058
     14 C          62.1152   87.7454   10.4851 C.ar    1  UNL1        0.0729
     15 C          60.6772   87.9573   10.1148 C.ar    1  UNL1        0.1069
     16 C          60.0728   87.1833    8.9810 C.ar    1  UNL1        0.0168
     17 N          59.8436   88.9433   10.8784 N.ar    1  UNL1       -0.1477
     18 N          59.6265   90.3824   10.5152 N.ar    1  UNL1       -0.1447
     19 C          58.7295   90.9918   11.5515 C.ar    1  UNL1        0.1446
     20 C          58.3920   89.9293   12.5551 C.ar    1  UNL1        0.1446
     21 N          59.0806   88.6633   12.1391 N.ar    1  UNL1       -0.1447
     22 C          63.9285   90.0674   13.8866 C.3     1  UNL1        0.0487
     23 C          65.2056   90.8511   13.8155 C.ar    1  UNL1       -0.0203
     24 C          66.1749   90.8108   14.9595 C.ar    1  UNL1       -0.0042
     25 C          67.4520   91.5945   14.8884 C.ar    1  UNL1       -0.0002
     26 C          67.7597   92.4184   13.6734 C.ar    1  UNL1        0.0030
     27 C          66.7903   92.4587   12.5294 C.ar    1  UNL1        0.0355
     28 C          65.5133   91.6750   12.6005 C.ar    1  UNL1       -0.0012
     29 C          67.0980   93.2827   11.3142 C.ar    1  UNL1        0.1622
     30 N          67.8366   92.6711   10.1608 N.ar    1  UNL1       -0.2250
     31 C          68.1443   93.4950    8.9457 C.ar    1  UNL1        0.1022
     32 C          67.7134   94.9305    8.8840 C.ar    1  UNL1        0.0414
     33 C          66.9748   95.5421   10.0375 C.ar    1  UNL1        0.1022
     34 N          66.6671   94.7181   11.2526 N.ar    1  UNL1       -0.2250
@<TRIPOS>BOND
     1    10    11    1
     2    11    12   ar
     3    12    13   ar
     4    13    14   ar
     5    14     1    1
     6     1     2    2
     7     1     3   am
     8     3     4    1
     9     4     5    1
    10     5     6    1
    11     5     7    1
    12     7     8    1
    13     8     9    1
    14     9    22    1
    15    22    23    1
    16    23    24   ar
    17    24    25   ar
    18    25    26   ar
    19    26    27   ar
    20    27    29    1
    21    29    30   ar
    22    30    31   ar
    23    31    32   ar
    24    32    33   ar
    25    33    34   ar
    26    27    28   ar
    27    14    15   ar
    28    15    17    1
    29    17    18   ar
    30    18    19   ar
    31    19    20   ar
    32    20    21   ar
    33    15    16   ar
    34    16    11   ar
    35     9     3    1
    36    28    23   ar
    37    21    17   ar
    38    34    29   ar
@<TRIPOS>MOLECULE
*****
 34 38 0 0 0
SMALL
GASTEIGER

@<TRIPOS>ATOM
      1 C          62.9532   85.9785   12.7351 C.2     1  UNL1        0.2506
      2 O          63.5945   86.7448   13.8538 O.2     1  UNL1       -0.2699
      3 N          62.4328   86.7049   11.5303 N.am    1  UNL1       -0.2724
      4 C          61.7915   85.9386   10.4116 C.3     1  UNL1        0.1231
      5 C          61.2711   86.6649    9.2068 C.3     1  UNL1        0.1351
      6 C          60.6299   85.8986    8.0880 C.3     1  UNL1        0.0339
      7 O          61.3919   88.1575    9.1207 O.3     1  UNL1       -0.3527
      8 C          62.0332   88.9238   10.2394 C.3     1  UNL1        0.1621
      9 C          62.5536   88.1975   11.4443 C.3     1  UNL1        0.1096
     10 C          62.4700   80.0079   13.0795 C.3     1  UNL1        0.0311
     11 C          62.5908   81.5006   12.9934 C.ar    1  UNL1       -0.0203
     12 C          62.7142   82.1671   11.6553 C.ar    1  UNL1       -0.0040
     13 C          62.8350   83.6598   11.5692 C.ar    1  UNL1        0.0058
     14 C          62.8324   84.4859   12.8212 C.ar    1  UNL1        0.0729
     15 C          62.7091   83.8193   14.1593 C.ar    1  UNL1        0.1069
     16 C          62.5882   82.3267   14.2454 C.ar    1  UNL1        0.0168
     17 N          62.7065   84.6455   15.4114 N.ar    1  UNL1       -0.1477
     18 N          63.9167   85.0765   16.1857 N.ar    1  UNL1       -0.1447
     19 C          63.4515   85.8830   17.3618 C.ar    1  UNL1        0.1446
     20 C          61.9537   85.9503   17.3143 C.ar    1  UNL1        0.1446
     21 N          61.4933   85.1855   16.1089 N.ar    1  UNL1       -0.1447
     22 C          63.1949   88.9638   12.5630 C.3     1  UNL1        0.0487
     23 C          63.9680   90.2150   12.2684 C.ar    1  UNL1       -0.0203
     24 C          63.6906   90.9904   11.0147 C.ar    1  UNL1       -0.0042
     25 C          64.4638   92.2416   10.7201 C.ar    1  UNL1       -0.0002
     26 C          65.5144   92.7173   11.6792 C.ar    1  UNL1        0.0030
     27 C          65.7917   91.9420   12.9329 C.ar    1  UNL1        0.0355
     28 C          65.0186   90.6908   13.2275 C.ar    1  UNL1       -0.0012
     29 C          66.8424   92.4177   13.8920 C.ar    1  UNL1        0.1622
     30 N          66.4445   92.9483   15.2375 N.ar    1  UNL1       -0.2250
     31 C          67.4950   93.4241   16.1966 C.ar    1  UNL1        0.1022
     32 C          68.9435   93.3693   15.8104 C.ar    1  UNL1        0.0414
     33 C          69.3413   92.8387   14.4649 C.ar    1  UNL1        0.1022
     34 N          68.2907   92.3629   13.5058 N.ar    1  UNL1       -0.2250
@<TRIPOS>BOND
     1    10    11    1
     2    11    12   ar
     3    12    13   ar
     4    13    14   ar
     5    14     1    1
     6     1     2    2
     7     1     3   am
     8     3     4    1
     9     4     5    1
    10     5     6    1
    11     5     7    1
    12     7     8    1
    13     8     9    1
    14     9    22    1
    15    22    23    1
    16    23    24   ar
    17    24    25   ar
    18    25    26   ar
    19    26    27   ar
    20    27    29    1
    21    29    30   ar
    22    30    31   ar
    23    31    32   ar
    24    32    33   ar
    25    33    34   ar
    26    27    28   ar
    27    14    15   ar
    28    15    17    1
    29    17    18   ar
    30    18    19   ar
    31    19    20   ar
    32    20    21   ar
    33    15    16   ar
    34    16    11   ar
    35     9     3    1
    36    28    23   ar
    37    21    17   ar
    38    34    29   ar
