@<TRIPOS>MOLECULE
*****
 31 35 0 0 0
SMALL
GASTEIGER

@<TRIPOS>ATOM
      1 C          59.0236   89.2128    6.9138 C.3     1  UNL1        0.0534
      2 C          59.8252   88.6970    8.0721 C.ar    1  UNL1        0.0730
      3 N          60.3848   89.5210    9.1936 N.ar    1  UNL1       -0.2299
      4 C          61.1132   88.5997   10.1268 C.ar    1  UNL1        0.1604
      5 C          61.8620   88.8497   11.4023 C.ar    1  UNL1        0.0813
      6 C          62.5014   87.7064   12.1330 C.ar    1  UNL1        0.0365
      7 C          62.3920   86.3131   11.5882 C.ar    1  UNL1        0.0857
      8 C          61.6432   86.0632   10.3127 C.ar    1  UNL1        0.0989
      9 N          61.0038   87.2065    9.5820 N.ar    1  UNL1       -0.2906
     10 C          60.2078   87.2666    8.3121 C.ar    1  UNL1        0.0567
     11 C          59.8561   86.1009    7.4361 C.3     1  UNL1        0.0517
     12 N          63.0315   85.1697   12.3189 N.ar    1  UNL1       -0.2716
     13 C          62.9307   83.7779   11.7687 C.ar    1  UNL1        0.0830
     14 C          63.5700   82.6345   12.4993 C.ar    1  UNL1        0.0192
     15 C          64.3102   82.8829   13.7802 C.ar    1  UNL1        0.0064
     16 C          64.4110   84.2747   14.3303 C.ar    1  UNL1        0.0611
     17 C          63.7716   85.4181   13.5996 C.ar    1  UNL1        0.2649
     18 O          63.8724   86.8100   14.1498 O.2     1  UNL1       -0.2666
     19 N          61.9714   90.2430   11.9471 N.pl3   1  UNL1       -0.3263
     20 H          61.2411   90.8871   11.8019 H       1  UNL1        0.1472
     21 C          63.1935   90.6550   12.7130 C.3     1  UNL1        0.1192
     22 C          64.3478   91.4459   12.1725 C.ar    1  UNL1       -0.0061
     23 C          64.6208   92.0237   10.8154 C.ar    1  UNL1       -0.0029
     24 C          65.8895   92.7837   10.5652 C.ar    1  UNL1       -0.0003
     25 C          66.8853   92.9659   11.6721 C.ar    1  UNL1       -0.0003
     26 C          66.6124   92.3882   13.0291 C.ar    1  UNL1       -0.0044
     27 C          65.3437   91.6281   13.2794 C.ar    1  UNL1       -0.0220
     28 C          64.8048   90.9499   14.5040 C.3     1  UNL1        0.0573
     29 C          63.4760   90.3485   14.1539 C.3     1  UNL1        0.1367
     30 O          62.5859   89.5761   15.0819 O.3     1  UNL1       -0.3821
     31 H          63.0012   89.5207   15.9568 H       1  UNL1        0.2104
@<TRIPOS>BOND
     1     1     2    1
     2     2     3   ar
     3     3     4   ar
     4     4     5   ar
     5     5    19    1
     6    21    19    1
     7    21    22    1
     8    22    23   ar
     9    23    24   ar
    10    24    25   ar
    11    25    26   ar
    12    26    27   ar
    13    27    28    1
    14    28    29    1
    15    29    30    1
    16     5     6   ar
    17     6     7   ar
    18     7    12    1
    19    12    13   ar
    20    13    14   ar
    21    14    15   ar
    22    15    16   ar
    23    16    17   ar
    24    17    18    2
    25     7     8   ar
    26     8     9   ar
    27     9    10   ar
    28    10    11    1
    29    10     2   ar
    30     9     4   ar
    31    29    21    1
    32    17    12   ar
    33    27    22   ar
    34    19    20    1
    35    30    31    1
@<TRIPOS>MOLECULE
*****
 31 35 0 0 0
SMALL
GASTEIGER

@<TRIPOS>ATOM
      1 C          59.0923   89.2292    7.0714 C.3     1  UNL1        0.0534
      2 C          59.8843   88.6200    8.1902 C.ar    1  UNL1        0.0730
      3 N          60.4508   89.3525    9.3702 N.ar    1  UNL1       -0.2299
      4 C          61.1654   88.3564   10.2346 C.ar    1  UNL1        0.1604
      5 C          61.9138   88.5028   11.5264 C.ar    1  UNL1        0.0813
      6 C          62.5372   87.3012   12.1724 C.ar    1  UNL1        0.0365
      7 C          62.4122   85.9531   11.5266 C.ar    1  UNL1        0.0857
      8 C          61.6639   85.8067   10.2349 C.ar    1  UNL1        0.0989
      9 N          61.0405   87.0083    9.5889 N.ar    1  UNL1       -0.2906
     10 C          60.2487   87.1712    8.3254 C.ar    1  UNL1        0.0567
     11 C          59.8852   86.0773    7.3656 C.3     1  UNL1        0.0517
     12 N          63.0356   84.7514   12.1726 N.ar    1  UNL1       -0.2716
     13 C          62.9910   84.5936   13.6637 C.ar    1  UNL1        0.0830
     14 C          63.6144   83.3919   14.3097 C.ar    1  UNL1        0.0192
     15 C          64.2824   82.3480   13.4647 C.ar    1  UNL1        0.0064
     16 C          64.3271   82.5058   11.9737 C.ar    1  UNL1        0.0611
     17 C          63.7036   83.7075   11.3277 C.ar    1  UNL1        0.2649
     18 O          63.7483   83.8653    9.8366 O.2     1  UNL1       -0.2666
     19 N          62.0387   89.8510   12.1721 N.pl3   1  UNL1       -0.3263
     20 H          61.3405   90.1675   12.7899 H       1  UNL1        0.1472
     21 C          63.2273   90.7169   11.8765 C.3     1  UNL1        0.1192
     22 C          64.3367   91.0471   12.8306 C.ar    1  UNL1       -0.0061
     23 C          64.5861   90.6509   14.2556 C.ar    1  UNL1       -0.0029
     24 C          65.8091   91.1465   14.9688 C.ar    1  UNL1       -0.0003
     25 C          66.7827   92.0383   14.2569 C.ar    1  UNL1       -0.0003
     26 C          66.5333   92.4345   12.8318 C.ar    1  UNL1       -0.0044
     27 C          65.3103   91.9389   12.1187 C.ar    1  UNL1       -0.0220
     28 C          64.8026   92.1600   10.7246 C.3     1  UNL1        0.0573
     29 C          63.5153   91.4047   10.5750 C.3     1  UNL1        0.1367
     30 O          62.6651   91.3473    9.3404 O.3     1  UNL1       -0.3821
     31 H          63.0755   91.8787    8.6403 H       1  UNL1        0.2104
@<TRIPOS>BOND
     1     1     2    1
     2     2     3   ar
     3     3     4   ar
     4     4     5   ar
     5     5    19    1
     6    21    19    1
     7    21    22    1
     8    22    23   ar
     9    23    24   ar
    10    24    25   ar
    11    25    26   ar
    12    26    27   ar
    13    27    28    1
    14    28    29    1
    15    29    30    1
    16     5     6   ar
    17     6     7   ar
    18     7    12    1
    19    12    13   ar
    20    13    14   ar
    21    14    15   ar
    22    15    16   ar
    23    16    17   ar
    24    17    18    2
    25     7     8   ar
    26     8     9   ar
    27     9    10   ar
    28    10    11    1
    29    10     2   ar
    30     9     4   ar
    31    29    21    1
    32    17    12   ar
    33    27    22   ar
    34    19    20    1
    35    30    31    1
@<TRIPOS>MOLECULE
*****
 31 35 0 0 0
SMALL
GASTEIGER

@<TRIPOS>ATOM
      1 C          58.8722   89.0419    6.6699 C.3     1  UNL1        0.0534
      2 C          59.7079   88.5165    7.7993 C.ar    1  UNL1        0.0730
      3 N          60.2251   89.3149    8.9591 N.ar    1  UNL1       -0.2299
      4 C          61.0100   88.3922    9.8438 C.ar    1  UNL1        0.1604
      5 C          61.7498   88.6215   11.1284 C.ar    1  UNL1        0.0813
      6 C          62.4575   87.4822   11.8000 C.ar    1  UNL1        0.0365
      7 C          62.4254   86.1136   11.1870 C.ar    1  UNL1        0.0857
      8 C          61.6856   85.8843    9.9024 C.ar    1  UNL1        0.0989
      9 N          60.9779   87.0236    9.2308 N.ar    1  UNL1       -0.2906
     10 C          60.1732   87.1004    7.9673 C.ar    1  UNL1        0.0567
     11 C          59.8844   85.9611    7.0353 C.3     1  UNL1        0.0517
     12 N          63.1331   84.9741   11.8586 N.ar    1  UNL1       -0.2716
     13 C          63.4321   83.7203   11.0914 C.ar    1  UNL1        0.0830
     14 C          64.1397   82.5809   11.7629 C.ar    1  UNL1        0.0192
     15 C          64.5484   82.6953   13.2017 C.ar    1  UNL1        0.0064
     16 C          64.2494   83.9492   13.9689 C.ar    1  UNL1        0.0611
     17 C          63.5417   85.0886   13.2973 C.ar    1  UNL1        0.2649
     18 O          63.2427   86.3424   14.0644 O.2     1  UNL1       -0.2666
     19 N          61.7819   89.9902   11.7413 N.pl3   1  UNL1       -0.3263
     20 H          60.9670   90.3685   12.1440 H       1  UNL1        0.1472
     21 C          63.0555   90.7826   11.7407 C.3     1  UNL1        0.1192
     22 C          63.9892   90.9518   12.9024 C.ar    1  UNL1       -0.0061
     23 C          63.9481   90.4286   14.3076 C.ar    1  UNL1       -0.0029
     24 C          65.0476   90.7722   15.2683 C.ar    1  UNL1       -0.0003
     25 C          66.1883   91.6390   14.8238 C.ar    1  UNL1       -0.0003
     26 C          66.2294   92.1623   13.4187 C.ar    1  UNL1       -0.0044
     27 C          65.1298   91.8187   12.4580 C.ar    1  UNL1       -0.0220
     28 C          64.9011   92.1852   11.0215 C.3     1  UNL1        0.0573
     29 C          63.6191   91.5448   10.5783 C.3     1  UNL1        0.1367
     30 O          63.0081   91.6486    9.2123 O.3     1  UNL1       -0.3821
     31 H          63.5718   92.1994    8.6469 H       1  UNL1        0.2104
@<TRIPOS>BOND
     1     1     2    1
     2     2     3   ar
     3     3     4   ar
     4     4     5   ar
     5     5    19    1
     6    21    19    1
     7    21    22    1
     8    22    23   ar
     9    23    24   ar
    10    24    25   ar
    11    25    26   ar
    12    26    27   ar
    13    27    28    1
    14    28    29    1
    15    29    30    1
    16     5     6   ar
    17     6     7   ar
    18     7    12    1
    19    12    13   ar
    20    13    14   ar
    21    14    15   ar
    22    15    16   ar
    23    16    17   ar
    24    17    18    2
    25     7     8   ar
    26     8     9   ar
    27     9    10   ar
    28    10    11    1
    29    10     2   ar
    30     9     4   ar
    31    29    21    1
    32    17    12   ar
    33    27    22   ar
    34    19    20    1
    35    30    31    1
@<TRIPOS>MOLECULE
*****
 31 35 0 0 0
SMALL
GASTEIGER

@<TRIPOS>ATOM
      1 C          60.9190   86.1513    9.7003 C.3     1  UNL1        0.0534
      2 C          61.7655   86.7447   10.7872 C.ar    1  UNL1        0.0730
      3 N          62.5543   85.9791   11.8078 N.ar    1  UNL1       -0.2299
      4 C          63.2481   86.9693   12.6956 C.ar    1  UNL1        0.1604
      5 C          64.1612   86.7945   13.8728 C.ar    1  UNL1        0.0813
      6 C          64.7143   87.9972   14.5780 C.ar    1  UNL1        0.0365
      7 C          64.3544   89.3748   14.1061 C.ar    1  UNL1        0.0857
      8 C          63.4413   89.5496   12.9290 C.ar    1  UNL1        0.0989
      9 N          62.8882   88.3469   12.2237 N.ar    1  UNL1       -0.2906
     10 C          61.9719   88.2081   11.0442 C.ar    1  UNL1        0.0567
     11 C          61.3680   89.3349   10.2596 C.3     1  UNL1        0.0517
     12 N          64.9075   90.5776   14.8114 N.ar    1  UNL1       -0.2716
     13 C          66.1705   91.2203   14.3198 C.ar    1  UNL1        0.0830
     14 C          66.7237   92.4231   15.0250 C.ar    1  UNL1        0.0192
     15 C          66.0138   92.9832   16.2219 C.ar    1  UNL1        0.0064
     16 C          64.7507   92.3405   16.7135 C.ar    1  UNL1        0.0611
     17 C          64.1976   91.1376   16.0082 C.ar    1  UNL1        0.2649
     18 O          62.9346   90.4949   16.4998 O.2     1  UNL1       -0.2666
     19 N          64.5211   85.4169   14.3447 N.pl3   1  UNL1       -0.3263
     20 H          65.3644   85.2675   14.8304 H       1  UNL1        0.1472
     21 C          63.5963   84.2667   14.0765 C.3     1  UNL1        0.1192
     22 C          63.6287   83.3712   12.8736 C.ar    1  UNL1       -0.0061
     23 C          64.5176   83.3449   11.6656 C.ar    1  UNL1       -0.0029
     24 C          64.3068   82.3086   10.6018 C.ar    1  UNL1       -0.0003
     25 C          63.2071   81.2987   10.7460 C.ar    1  UNL1       -0.0003
     26 C          62.3183   81.3250   11.9540 C.ar    1  UNL1       -0.0044
     27 C          62.5291   82.3612   13.0178 C.ar    1  UNL1       -0.0220
     28 C          61.8170   82.6326   14.3098 C.3     1  UNL1        0.0573
     29 C          62.4766   83.8103   14.9641 C.3     1  UNL1        0.1367
     30 O          62.0851   84.4237   16.2758 O.3     1  UNL1       -0.3821
     31 H          61.3303   83.9402   16.6464 H       1  UNL1        0.2104
@<TRIPOS>BOND
     1     1     2    1
     2     2     3   ar
     3     3     4   ar
     4     4     5   ar
     5     5    19    1
     6    21    19    1
     7    21    22    1
     8    22    23   ar
     9    23    24   ar
    10    24    25   ar
    11    25    26   ar
    12    26    27   ar
    13    27    28    1
    14    28    29    1
    15    29    30    1
    16     5     6   ar
    17     6     7   ar
    18     7    12    1
    19    12    13   ar
    20    13    14   ar
    21    14    15   ar
    22    15    16   ar
    23    16    17   ar
    24    17    18    2
    25     7     8   ar
    26     8     9   ar
    27     9    10   ar
    28    10    11    1
    29    10     2   ar
    30     9     4   ar
    31    29    21    1
    32    17    12   ar
    33    27    22   ar
    34    19    20    1
    35    30    31    1
@<TRIPOS>MOLECULE
*****
 31 35 0 0 0
SMALL
GASTEIGER

@<TRIPOS>ATOM
      1 C          64.6478   85.8826   16.3988 C.3     1  UNL1        0.0534
      2 C          64.1005   86.1707   15.0322 C.ar    1  UNL1        0.0730
      3 N          63.6672   87.5126   14.5208 N.ar    1  UNL1       -0.2299
      4 C          63.1894   87.3387   13.1096 C.ar    1  UNL1        0.1604
      5 C          62.6465   88.3129   12.1065 C.ar    1  UNL1        0.0813
      6 C          62.2415   87.8377   10.7426 C.ar    1  UNL1        0.0365
      7 C          62.3795   86.3884   10.3819 C.ar    1  UNL1        0.0857
      8 C          62.9224   85.4142   11.3849 C.ar    1  UNL1        0.0989
      9 N          63.3274   85.8893   12.7488 N.ar    1  UNL1       -0.2906
     10 C          63.8905   85.1675   13.9370 C.ar    1  UNL1        0.0567
     11 C          64.1908   83.7000   14.0161 C.3     1  UNL1        0.0517
     12 N          61.9746   85.9131    9.0179 N.ar    1  UNL1       -0.2716
     13 C          62.9441   85.1390    8.1750 C.ar    1  UNL1        0.0830
     14 C          62.5393   84.6637    6.8111 C.ar    1  UNL1        0.0192
     15 C          61.1647   84.9627    6.2901 C.ar    1  UNL1        0.0064
     16 C          60.1951   85.7368    7.1331 C.ar    1  UNL1        0.0611
     17 C          60.6001   86.2121    8.4970 C.ar    1  UNL1        0.2649
     18 O          59.6305   86.9862    9.3400 O.2     1  UNL1       -0.2666
     19 N          62.5085   89.7624   12.4674 N.pl3   1  UNL1       -0.3263
     20 H          61.7255   90.0700   12.9787 H       1  UNL1        0.1472
     21 C          63.5637   90.7431   12.0491 C.3     1  UNL1        0.1192
     22 C          64.7233   91.1999   12.8837 C.ar    1  UNL1       -0.0061
     23 C          65.1562   90.8513   14.2769 C.ar    1  UNL1       -0.0029
     24 C          66.3865   91.4811   14.8597 C.ar    1  UNL1       -0.0003
     25 C          67.1839   92.4595   14.0493 C.ar    1  UNL1       -0.0003
     26 C          66.7511   92.8081   12.6561 C.ar    1  UNL1       -0.0044
     27 C          65.5208   92.1783   12.0733 C.ar    1  UNL1       -0.0220
     28 C          64.8539   92.3262   10.7378 C.3     1  UNL1        0.0573
     29 C          63.6444   91.4392   10.7229 C.3     1  UNL1        0.1367
     30 O          62.6842   91.2768    9.5820 O.3     1  UNL1       -0.3821
     31 H          62.9634   91.8383    8.8420 H       1  UNL1        0.2104
@<TRIPOS>BOND
     1     1     2    1
     2     2     3   ar
     3     3     4   ar
     4     4     5   ar
     5     5    19    1
     6    21    19    1
     7    21    22    1
     8    22    23   ar
     9    23    24   ar
    10    24    25   ar
    11    25    26   ar
    12    26    27   ar
    13    27    28    1
    14    28    29    1
    15    29    30    1
    16     5     6   ar
    17     6     7   ar
    18     7    12    1
    19    12    13   ar
    20    13    14   ar
    21    14    15   ar
    22    15    16   ar
    23    16    17   ar
    24    17    18    2
    25     7     8   ar
    26     8     9   ar
    27     9    10   ar
    28    10    11    1
    29    10     2   ar
    30     9     4   ar
    31    29    21    1
    32    17    12   ar
    33    27    22   ar
    34    19    20    1
    35    30    31    1
@<TRIPOS>MOLECULE
*****
 31 35 0 0 0
SMALL
GASTEIGER

@<TRIPOS>ATOM
      1 C          60.6047   88.0735   11.6811 C.3     1  UNL1        0.0534
      2 C          61.7301   89.0653   11.6938 C.ar    1  UNL1        0.0730
      3 N          62.7789   89.1951   12.7583 N.ar    1  UNL1       -0.2299
      4 C          63.7011   90.3114   12.3666 C.ar    1  UNL1        0.1604
      5 C          64.9151   90.8902   13.0308 C.ar    1  UNL1        0.0813
      6 C          65.6502   92.0291   12.3886 C.ar    1  UNL1        0.0365
      7 C          65.1714   92.5892   11.0821 C.ar    1  UNL1        0.0857
      8 C          63.9574   92.0103   10.4178 C.ar    1  UNL1        0.0989
      9 N          63.2223   90.8715   11.0600 N.ar    1  UNL1       -0.2906
     10 C          62.0041   90.1013   10.6443 C.ar    1  UNL1        0.0567
     11 C          61.2010   90.3275    9.3977 C.3     1  UNL1        0.0517
     12 N          65.9065   93.7281   10.4398 N.ar    1  UNL1       -0.2716
     13 C          65.3489   95.1185   10.5156 C.ar    1  UNL1        0.0830
     14 C          66.0839   96.2574    9.8733 C.ar    1  UNL1        0.0192
     15 C          67.3767   96.0060    9.1552 C.ar    1  UNL1        0.0064
     16 C          67.9343   94.6155    9.0794 C.ar    1  UNL1        0.0611
     17 C          67.1992   93.4766    9.7217 C.ar    1  UNL1        0.2649
     18 O          67.7568   92.0861    9.6459 O.2     1  UNL1       -0.2666
     19 N          65.3939   90.3301   14.3374 N.pl3   1  UNL1       -0.3263
     20 H          66.3510   90.3628   14.5658 H       1  UNL1        0.1472
     21 C          64.4145   89.7204   15.2960 C.3     1  UNL1        0.1192
     22 C          64.1628   88.2538   15.4857 C.ar    1  UNL1       -0.0061
     23 C          64.7584   87.0409   14.8345 C.ar    1  UNL1       -0.0029
     24 C          64.2986   85.6712   15.2377 C.ar    1  UNL1       -0.0003
     25 C          63.2433   85.5145   16.2921 C.ar    1  UNL1       -0.0003
     26 C          62.6477   86.7275   16.9433 C.ar    1  UNL1       -0.0044
     27 C          63.1075   88.0971   16.5401 C.ar    1  UNL1       -0.0220
     28 C          62.7069   89.4668   17.0021 C.3     1  UNL1        0.0573
     29 C          63.5146   90.4700   16.2332 C.3     1  UNL1        0.1367
     30 O          63.4363   91.9611   16.3763 O.3     1  UNL1       -0.3821
     31 H          62.7760   92.1870   17.0501 H       1  UNL1        0.2104
@<TRIPOS>BOND
     1     1     2    1
     2     2     3   ar
     3     3     4   ar
     4     4     5   ar
     5     5    19    1
     6    21    19    1
     7    21    22    1
     8    22    23   ar
     9    23    24   ar
    10    24    25   ar
    11    25    26   ar
    12    26    27   ar
    13    27    28    1
    14    28    29    1
    15    29    30    1
    16     5     6   ar
    17     6     7   ar
    18     7    12    1
    19    12    13   ar
    20    13    14   ar
    21    14    15   ar
    22    15    16   ar
    23    16    17   ar
    24    17    18    2
    25     7     8   ar
    26     8     9   ar
    27     9    10   ar
    28    10    11    1
    29    10     2   ar
    30     9     4   ar
    31    29    21    1
    32    17    12   ar
    33    27    22   ar
    34    19    20    1
    35    30    31    1
@<TRIPOS>MOLECULE
*****
 31 35 0 0 0
SMALL
GASTEIGER

@<TRIPOS>ATOM
      1 C          65.1697   85.8585   15.4437 C.3     1  UNL1        0.0534
      2 C          64.3836   86.5445   14.3659 C.ar    1  UNL1        0.0730
      3 N          64.2067   88.0259   14.2108 N.ar    1  UNL1       -0.2299
      4 C          63.3502   88.2665   13.0030 C.ar    1  UNL1        0.1604
      5 C          62.8457   89.5269   12.3652 C.ar    1  UNL1        0.0813
      6 C          61.9888   89.4546   11.1362 C.ar    1  UNL1        0.0365
      7 C          61.6365   88.1219   10.5450 C.ar    1  UNL1        0.0857
      8 C          62.1409   86.8614   11.1828 C.ar    1  UNL1        0.0989
      9 N          62.9978   86.9337   12.4117 N.ar    1  UNL1       -0.2906
     10 C          63.6365   85.8695   13.2541 C.ar    1  UNL1        0.0567
     11 C          63.5442   84.3900   13.0248 C.3     1  UNL1        0.0517
     12 N          60.7795   88.0496    9.3159 N.ar    1  UNL1       -0.2716
     13 C          60.2721   89.3099    8.6802 C.ar    1  UNL1        0.0830
     14 C          59.4152   89.2376    7.4512 C.ar    1  UNL1        0.0192
     15 C          59.0657   87.9049    6.8579 C.ar    1  UNL1        0.0064
     16 C          59.5731   86.6446    7.4936 C.ar    1  UNL1        0.0611
     17 C          60.4300   86.7170    8.7227 C.ar    1  UNL1        0.2649
     18 O          60.9374   85.4566    9.3584 O.2     1  UNL1       -0.2666
     19 N          63.1982   90.8597   12.9565 N.pl3   1  UNL1       -0.3263
     20 H          62.5836   91.2950   13.5905 H       1  UNL1        0.1472
     21 C          64.4871   91.5292   12.5817 C.3     1  UNL1        0.1192
     22 C          65.6775   91.7133   13.4756 C.ar    1  UNL1       -0.0061
     23 C          65.9327   91.3209   14.9006 C.ar    1  UNL1       -0.0029
     24 C          67.2485   91.6452   15.5437 C.ar    1  UNL1       -0.0003
     25 C          68.3091   92.3620   14.7617 C.ar    1  UNL1       -0.0003
     26 C          68.0538   92.7544   13.3366 C.ar    1  UNL1       -0.0044
     27 C          66.7380   92.4301   12.6936 C.ar    1  UNL1       -0.0220
     28 C          66.2031   92.6890   11.3163 C.3     1  UNL1        0.0573
     29 C          64.8119   92.1322   11.2472 C.3     1  UNL1        0.1367
     30 O          63.9049   92.1716   10.0532 O.3     1  UNL1       -0.3821
     31 H          64.3559   92.6170    9.3190 H       1  UNL1        0.2104
@<TRIPOS>BOND
     1     1     2    1
     2     2     3   ar
     3     3     4   ar
     4     4     5   ar
     5     5    19    1
     6    21    19    1
     7    21    22    1
     8    22    23   ar
     9    23    24   ar
    10    24    25   ar
    11    25    26   ar
    12    26    27   ar
    13    27    28    1
    14    28    29    1
    15    29    30    1
    16     5     6   ar
    17     6     7   ar
    18     7    12    1
    19    12    13   ar
    20    13    14   ar
    21    14    15   ar
    22    15    16   ar
    23    16    17   ar
    24    17    18    2
    25     7     8   ar
    26     8     9   ar
    27     9    10   ar
    28    10    11    1
    29    10     2   ar
    30     9     4   ar
    31    29    21    1
    32    17    12   ar
    33    27    22   ar
    34    19    20    1
    35    30    31    1
@<TRIPOS>MOLECULE
*****
 31 35 0 0 0
SMALL
GASTEIGER

@<TRIPOS>ATOM
      1 C          58.5631   86.7107    7.7546 C.3     1  UNL1        0.0534
      2 C          59.6247   87.2889    8.6428 C.ar    1  UNL1        0.0730
      3 N          60.2939   86.5885    9.7880 N.ar    1  UNL1       -0.2299
      4 C          61.2861   87.5359   10.3947 C.ar    1  UNL1        0.1604
      5 C          62.2334   87.3938   11.5490 C.ar    1  UNL1        0.0813
      6 C          63.1246   88.5375   11.9331 C.ar    1  UNL1        0.0365
      7 C          63.0686   89.8234   11.1628 C.ar    1  UNL1        0.0857
      8 C          62.1213   89.9655   10.0085 C.ar    1  UNL1        0.0989
      9 N          61.2301   88.8218    9.6244 N.ar    1  UNL1       -0.2906
     10 C          60.2032   88.6692    8.5417 C.ar    1  UNL1        0.0567
     11 C          59.8219   89.7135    7.5347 C.3     1  UNL1        0.0517
     12 N          63.9598   90.9672   11.5469 N.ar    1  UNL1       -0.2716
     13 C          64.4238   91.9396   10.5033 C.ar    1  UNL1        0.0830
     14 C          65.3150   93.0834   10.8873 C.ar    1  UNL1        0.0192
     15 C          65.7423   93.2548   12.3150 C.ar    1  UNL1        0.0064
     16 C          65.2783   92.2824   13.3586 C.ar    1  UNL1        0.0611
     17 C          64.3871   91.1385   12.9745 C.ar    1  UNL1        0.2649
     18 O          63.9231   90.1661   14.0181 O.2     1  UNL1       -0.2666
     19 N          62.2894   86.1078   12.3193 N.pl3   1  UNL1       -0.3263
     20 H          62.0773   86.1002   13.2806 H       1  UNL1        0.1472
     21 C          62.6687   84.8335   11.6248 C.3     1  UNL1        0.1192
     22 C          62.6780   83.4644   12.2375 C.ar    1  UNL1       -0.0061
     23 C          62.3408   82.9797   13.6164 C.ar    1  UNL1       -0.0029
     24 C          62.4460   81.5199   13.9448 C.ar    1  UNL1       -0.0003
     25 C          62.8883   80.5448   12.8943 C.ar    1  UNL1       -0.0003
     26 C          63.2255   81.0295   11.5154 C.ar    1  UNL1       -0.0044
     27 C          63.1203   82.4893   11.1870 C.ar    1  UNL1       -0.0220
     28 C          63.3844   83.2558    9.9250 C.3     1  UNL1        0.0573
     29 C          63.1053   84.7046   10.1955 C.3     1  UNL1        0.1367
     30 O          63.2393   85.8273    9.2098 O.3     1  UNL1       -0.3821
     31 H          63.5378   85.4748    8.3569 H       1  UNL1        0.2104
@<TRIPOS>BOND
     1     1     2    1
     2     2     3   ar
     3     3     4   ar
     4     4     5   ar
     5     5    19    1
     6    21    19    1
     7    21    22    1
     8    22    23   ar
     9    23    24   ar
    10    24    25   ar
    11    25    26   ar
    12    26    27   ar
    13    27    28    1
    14    28    29    1
    15    29    30    1
    16     5     6   ar
    17     6     7   ar
    18     7    12    1
    19    12    13   ar
    20    13    14   ar
    21    14    15   ar
    22    15    16   ar
    23    16    17   ar
    24    17    18    2
    25     7     8   ar
    26     8     9   ar
    27     9    10   ar
    28    10    11    1
    29    10     2   ar
    30     9     4   ar
    31    29    21    1
    32    17    12   ar
    33    27    22   ar
    34    19    20    1
    35    30    31    1
@<TRIPOS>MOLECULE
*****
 31 35 0 0 0
SMALL
GASTEIGER

@<TRIPOS>ATOM
      1 C          64.7187   85.4958   16.3904 C.3     1  UNL1        0.0534
      2 C          64.1469   85.8479   15.0490 C.ar    1  UNL1        0.0730
      3 N          63.6443   87.1981   14.6317 N.ar    1  UNL1       -0.2299
      4 C          63.1641   87.0961   13.2142 C.ar    1  UNL1        0.1604
      5 C          62.5660   88.1076   12.2819 C.ar    1  UNL1        0.0813
      6 C          62.1738   87.7059   10.8910 C.ar    1  UNL1        0.0365
      7 C          62.3796   86.2927   10.4324 C.ar    1  UNL1        0.0857
      8 C          62.9777   85.2812   11.3647 C.ar    1  UNL1        0.0989
      9 N          63.3700   85.6829   12.7556 N.ar    1  UNL1       -0.2906
     10 C          63.9774   84.9114   13.8896 C.ar    1  UNL1        0.0567
     11 C          64.3498   83.4586   13.8678 C.3     1  UNL1        0.0517
     12 N          61.9873   85.8909    9.0414 N.ar    1  UNL1       -0.2716
     13 C          62.9582   85.1457    8.1741 C.ar    1  UNL1        0.0830
     14 C          62.5660   84.7439    6.7832 C.ar    1  UNL1        0.0192
     15 C          61.2029   85.0872    6.2595 C.ar    1  UNL1        0.0064
     16 C          60.2320   85.8324    7.1268 C.ar    1  UNL1        0.0611
     17 C          60.6243   86.2342    8.5178 C.ar    1  UNL1        0.2649
     18 O          59.6535   86.9794    9.3851 O.2     1  UNL1       -0.2666
     19 N          62.3602   89.5209   12.7406 N.pl3   1  UNL1       -0.3263
     20 H          61.4610   89.9209   12.7145 H       1  UNL1        0.1472
     21 C          63.5245   90.3247   13.2390 C.3     1  UNL1        0.1192
     22 C          64.3841   91.2363   12.4143 C.ar    1  UNL1       -0.0061
     23 C          64.3540   91.5999   10.9594 C.ar    1  UNL1       -0.0029
     24 C          65.3642   92.5604   10.4054 C.ar    1  UNL1       -0.0003
     25 C          66.4045   93.1572   11.3062 C.ar    1  UNL1       -0.0003
     26 C          66.4347   92.7935   12.7612 C.ar    1  UNL1       -0.0044
     27 C          65.4245   91.8330   13.3152 C.ar    1  UNL1       -0.0220
     28 C          65.2078   91.2904   14.6967 C.3     1  UNL1        0.0573
     29 C          64.0335   90.3582   14.6496 C.3     1  UNL1        0.1367
     30 O          63.4677   89.5937   15.8095 O.3     1  UNL1       -0.3821
     31 H          63.9800   89.7927   16.6087 H       1  UNL1        0.2104
@<TRIPOS>BOND
     1     1     2    1
     2     2     3   ar
     3     3     4   ar
     4     4     5   ar
     5     5    19    1
     6    21    19    1
     7    21    22    1
     8    22    23   ar
     9    23    24   ar
    10    24    25   ar
    11    25    26   ar
    12    26    27   ar
    13    27    28    1
    14    28    29    1
    15    29    30    1
    16     5     6   ar
    17     6     7   ar
    18     7    12    1
    19    12    13   ar
    20    13    14   ar
    21    14    15   ar
    22    15    16   ar
    23    16    17   ar
    24    17    18    2
    25     7     8   ar
    26     8     9   ar
    27     9    10   ar
    28    10    11    1
    29    10     2   ar
    30     9     4   ar
    31    29    21    1
    32    17    12   ar
    33    27    22   ar
    34    19    20    1
    35    30    31    1
