@<TRIPOS>MOLECULE
*****
 34 36 0 0 0
SMALL
GASTEIGER

@<TRIPOS>ATOM
      1 C          60.4632   86.7104    7.9853 C.3     1  UNL1        0.0821
      2 C          59.7462   87.8043    7.2511 C.3     1  UNL1        0.0470
      3 C          59.8307   89.2187    7.7435 C.3     1  UNL1        0.1134
      4 O          59.1137   90.3126    7.0092 O.3     1  UNL1       -0.3844
      5 C          60.6323   89.5391    8.9702 C.3     1  UNL1        0.0508
      6 C          61.3493   88.4451    9.7045 C.3     1  UNL1        0.1256
      7 N          61.2647   87.0308    9.2120 N.3     1  UNL1       -0.1544
      8 H          58.6472   89.9378    6.2458 H       1  UNL1        0.2103
      9 S          61.9818   85.9368    9.9464 S.O2    1  UNL1        0.0633
     10 O          60.8998   85.9249   10.9852 O.2     1  UNL1       -0.1528
     11 O          63.0637   85.9487    8.9075 O.2     1  UNL1       -0.1528
     12 C          62.6988   84.8429   10.6806 C.ar    1  UNL1        0.1223
     13 C          62.5587   84.7218   12.1691 C.ar    1  UNL1        0.0208
     14 C          63.2758   83.6278   12.9034 C.ar    1  UNL1        0.0128
     15 C          64.1329   82.6550   12.1491 C.ar    1  UNL1        0.0578
     16 CL         64.8500   81.5611   12.8834 Cl      1  UNL1       -0.0822
     17 C          64.2730   82.7761   10.6606 C.ar    1  UNL1        0.0128
     18 C          63.5560   83.8700    9.9263 C.ar    1  UNL1        0.0208
     19 C          61.3365   84.8074    6.4472 C.3     1  UNL1        0.0015
     20 C          60.3786   85.2960    7.4929 C.3     1  UNL1        0.0178
     21 C          62.1509   88.7655   10.9312 C.3     1  UNL1        0.2277
     22 O          62.0883   90.1391   11.5305 O.3     1  UNL1       -0.4330
     23 C          63.1941   91.1200   11.2750 C.2     1  UNL1        0.4050
     24 O          63.3238   91.7702    9.9295 O.2     1  UNL1       -0.2262
     25 N          64.1700   91.4506   12.3650 N.am    1  UNL1       -0.2432
     26 C          64.0403   90.8004   13.7105 C.3     1  UNL1        0.1141
     27 C          65.0162   91.1309   14.8005 C.3     1  UNL1        0.0941
     28 N          66.1220   92.1118   14.5451 N.3     1  UNL1       -0.2676
     29 C          66.2518   92.7621   13.1996 C.3     1  UNL1        0.0941
     30 C          65.2757   92.4314   12.1095 C.3     1  UNL1        0.1141
     31 C          67.0980   92.4424   15.6351 C.3     1  UNL1        0.1043
     32 C          68.4033   93.1005   15.2988 C.3     1  UNL1        0.1544
     33 O          69.4032   92.3870   14.4380 O.3     1  UNL1       -0.3805
     34 H          69.7322   91.6036   14.9061 H       1  UNL1        0.2105
@<TRIPOS>BOND
     1    19    20    1
     2     1    20    1
     3     1     2    1
     4     2     3    1
     5     3     4    1
     6     3     5    1
     7     5     6    1
     8     6    21    1
     9    21    22    1
    10    22    23    1
    11    23    24    2
    12    23    25   am
    13    25    26    1
    14    26    27    1
    15    27    28    1
    16    28    31    1
    17    31    32    1
    18    32    33    1
    19    28    29    1
    20    29    30    1
    21     6     7    1
    22     7     9    1
    23     9    10    2
    24     9    11    2
    25     9    12    1
    26    12    13   ar
    27    13    14   ar
    28    14    15   ar
    29    15    16    1
    30    15    17   ar
    31    17    18   ar
    32     7     1    1
    33    18    12   ar
    34    30    25    1
    35     4     8    1
    36    33    34    1
@<TRIPOS>MOLECULE
*****
 34 36 0 0 0
SMALL
GASTEIGER

@<TRIPOS>ATOM
      1 C          60.4507   86.7245    7.9953 C.3     1  UNL1        0.0821
      2 C          59.7326   87.8416    7.2980 C.3     1  UNL1        0.0470
      3 C          59.8719   89.2494    7.7967 C.3     1  UNL1        0.1134
      4 O          59.1537   90.3666    7.0993 O.3     1  UNL1       -0.3844
      5 C          60.7292   89.5401    8.9927 C.3     1  UNL1        0.0508
      6 C          61.4473   88.4230    9.6900 C.3     1  UNL1        0.1256
      7 N          61.3080   87.0151    9.1913 N.3     1  UNL1       -0.1544
      8 H          58.6482   90.0095    6.3524 H       1  UNL1        0.2103
      9 S          62.0262   85.8980    9.8887 S.O2    1  UNL1        0.0633
     10 O          63.1026   85.9382    8.8448 O.2     1  UNL1       -0.1528
     11 O          60.9498   85.8577   10.9325 O.2     1  UNL1       -0.1528
     12 C          62.7442   84.7809   10.5861 C.ar    1  UNL1        0.1223
     13 C          63.5211   83.7754    9.7888 C.ar    1  UNL1        0.0208
     14 C          64.2392   82.6583   10.4863 C.ar    1  UNL1        0.0128
     15 C          64.1804   82.5466   11.9809 C.ar    1  UNL1        0.0578
     16 CL         64.8984   81.4295   12.6783 Cl      1  UNL1       -0.0822
     17 C          63.4035   83.5520   12.7782 C.ar    1  UNL1        0.0128
     18 C          62.6855   84.6691   12.0808 C.ar    1  UNL1        0.0208
     19 C          61.2462   84.7978    6.4444 C.3     1  UNL1        0.0015
     20 C          60.3115   85.3167    7.4966 C.3     1  UNL1        0.0178
     21 C          62.3047   88.7136   10.8860 C.3     1  UNL1        0.2277
     22 O          61.8684   89.7389   11.8902 O.3     1  UNL1       -0.4330
     23 C          62.8732   90.3547   12.8183 C.2     1  UNL1        0.4050
     24 O          62.8527   90.0137   14.2789 O.2     1  UNL1       -0.2262
     25 N          63.8984   91.3114   12.2858 N.am    1  UNL1       -0.2432
     26 C          63.9190   91.6523   10.8252 C.3     1  UNL1        0.1141
     27 C          64.9442   92.6090   10.2927 C.3     1  UNL1        0.0941
     28 N          65.9490   93.2248   11.2208 N.3     1  UNL1       -0.2676
     29 C          65.9284   92.8838   12.6814 C.3     1  UNL1        0.0941
     30 C          64.9031   91.9271   13.2139 C.3     1  UNL1        0.1141
     31 C          66.9742   94.1814   10.6883 C.3     1  UNL1        0.1043
     32 C          67.8579   93.7748    9.5465 C.3     1  UNL1        0.1544
     33 O          69.2423   93.2637    9.8147 O.3     1  UNL1       -0.3805
     34 H          69.7823   93.9755   10.1923 H       1  UNL1        0.2105
@<TRIPOS>BOND
     1    19    20    1
     2     1    20    1
     3     1     2    1
     4     2     3    1
     5     3     4    1
     6     3     5    1
     7     5     6    1
     8     6    21    1
     9    21    22    1
    10    22    23    1
    11    23    24    2
    12    23    25   am
    13    25    26    1
    14    26    27    1
    15    27    28    1
    16    28    31    1
    17    31    32    1
    18    32    33    1
    19    28    29    1
    20    29    30    1
    21     6     7    1
    22     7     9    1
    23     9    10    2
    24     9    11    2
    25     9    12    1
    26    12    13   ar
    27    13    14   ar
    28    14    15   ar
    29    15    16    1
    30    15    17   ar
    31    17    18   ar
    32     7     1    1
    33    18    12   ar
    34    30    25    1
    35     4     8    1
    36    33    34    1
@<TRIPOS>MOLECULE
*****
 34 36 0 0 0
SMALL
GASTEIGER

@<TRIPOS>ATOM
      1 C          64.8172   91.6737   12.7141 C.3     1  UNL1        0.0821
      2 C          65.6722   92.4856   13.6412 C.3     1  UNL1        0.0470
      3 C          65.6382   92.2215   15.1174 C.3     1  UNL1        0.1134
      4 O          66.4933   93.0336   16.0445 O.3     1  UNL1       -0.3844
      5 C          64.7492   91.1454   15.6665 C.3     1  UNL1        0.0508
      6 C          63.8941   90.3334   14.7394 C.3     1  UNL1        0.1256
      7 N          63.9281   90.5976   13.2632 N.3     1  UNL1       -0.1544
      8 H          67.0026   93.6804   15.5314 H       1  UNL1        0.2103
      9 S          63.0730   89.7855   12.3361 S.O2    1  UNL1        0.0633
     10 O          63.8774   88.5629   12.6650 O.2     1  UNL1       -0.1528
     11 O          62.2686   91.0081   12.0073 O.2     1  UNL1       -0.1528
     12 C          62.2179   88.9735   11.4091 C.ar    1  UNL1        0.1223
     13 C          62.3326   87.4779   11.3997 C.ar    1  UNL1        0.0208
     14 C          61.4774   86.6659   10.4726 C.ar    1  UNL1        0.0128
     15 C          60.5077   87.3496    9.5549 C.ar    1  UNL1        0.0578
     16 CL         59.6526   86.5376    8.6279 Cl      1  UNL1       -0.0822
     17 C          60.3930   88.8451    9.5643 C.ar    1  UNL1        0.0128
     18 C          61.2481   89.6571   10.4913 C.ar    1  UNL1        0.0208
     19 C          65.8878   92.8577   10.6643 C.3     1  UNL1        0.0015
     20 C          64.8512   91.9378   11.2380 C.3     1  UNL1        0.0178
     21 C          63.0050   89.2573   15.2885 C.3     1  UNL1        0.2277
     22 O          63.5764   88.1943   16.1793 O.3     1  UNL1       -0.4330
     23 C          62.8207   86.9181   16.4041 C.2     1  UNL1        0.4050
     24 O          61.7447   86.8576   17.4473 O.2     1  UNL1       -0.2262
     25 N          63.1412   85.7026   15.5857 N.am    1  UNL1       -0.2432
     26 C          64.2172   85.7632   14.5424 C.3     1  UNL1        0.1141
     27 C          64.5377   84.5477   13.7240 C.3     1  UNL1        0.0941
     28 N          63.7820   83.2715   13.9488 N.3     1  UNL1       -0.2676
     29 C          62.7059   83.2110   14.9921 C.3     1  UNL1        0.0941
     30 C          62.3855   84.4266   15.8105 C.3     1  UNL1        0.1141
     31 C          64.1024   82.0560   13.1304 C.3     1  UNL1        0.1043
     32 C          63.9475   82.0939   11.6389 C.3     1  UNL1        0.1544
     33 O          65.0301   82.6875   10.7872 O.3     1  UNL1       -0.3805
     34 H          65.0986   83.6381   10.9675 H       1  UNL1        0.2105
@<TRIPOS>BOND
     1    19    20    1
     2     1    20    1
     3     1     2    1
     4     2     3    1
     5     3     4    1
     6     3     5    1
     7     5     6    1
     8     6    21    1
     9    21    22    1
    10    22    23    1
    11    23    24    2
    12    23    25   am
    13    25    26    1
    14    26    27    1
    15    27    28    1
    16    28    31    1
    17    31    32    1
    18    32    33    1
    19    28    29    1
    20    29    30    1
    21     6     7    1
    22     7     9    1
    23     9    10    2
    24     9    11    2
    25     9    12    1
    26    12    13   ar
    27    13    14   ar
    28    14    15   ar
    29    15    16    1
    30    15    17   ar
    31    17    18   ar
    32     7     1    1
    33    18    12   ar
    34    30    25    1
    35     4     8    1
    36    33    34    1
@<TRIPOS>MOLECULE
*****
 34 36 0 0 0
SMALL
GASTEIGER

@<TRIPOS>ATOM
      1 C          60.1188   88.9732    9.6202 C.3     1  UNL1        0.0821
      2 C          59.1863   88.3272    8.6389 C.3     1  UNL1        0.0470
      3 C          59.4908   86.9594    8.1036 C.3     1  UNL1        0.1134
      4 O          58.5582   86.3133    7.1223 O.3     1  UNL1       -0.3844
      5 C          60.7278   86.2377    8.5497 C.3     1  UNL1        0.0508
      6 C          61.6603   86.8838    9.5309 C.3     1  UNL1        0.1256
      7 N          61.3558   88.2516   10.0662 N.3     1  UNL1       -0.1544
      8 H          57.8146   86.9096    6.9422 H       1  UNL1        0.2103
      9 S          62.2884   88.8976   11.0476 S.O2    1  UNL1        0.0633
     10 O          62.9607   89.6317    9.9255 O.2     1  UNL1       -0.1528
     11 O          61.6161   88.1635   12.1696 O.2     1  UNL1       -0.1528
     12 C          63.2209   89.5436   12.0289 C.ar    1  UNL1        0.1223
     13 C          63.7182   90.9377   11.7851 C.ar    1  UNL1        0.0208
     14 C          64.6507   91.5837   12.7665 C.ar    1  UNL1        0.0128
     15 C          65.0860   90.8357   13.9916 C.ar    1  UNL1        0.0578
     16 CL         66.0185   91.4817   14.9729 Cl      1  UNL1       -0.0822
     17 C          64.5887   89.4417   14.2354 C.ar    1  UNL1        0.0128
     18 C          63.6562   88.7956   13.2541 C.ar    1  UNL1        0.0208
     19 C          59.2056   90.4949   11.5177 C.3     1  UNL1        0.0015
     20 C          59.8143   90.3410   10.1555 C.3     1  UNL1        0.0178
     21 C          62.8974   86.1621    9.9770 C.3     1  UNL1        0.2277
     22 O          63.1188   84.7341    9.5748 O.3     1  UNL1       -0.4330
     23 C          63.7740   83.7793   10.5283 C.2     1  UNL1        0.4050
     24 O          64.6577   82.6857   10.0058 O.2     1  UNL1       -0.2262
     25 N          63.5456   83.9182   12.0043 N.am    1  UNL1       -0.2432
     26 C          62.6619   85.0118   12.5268 C.3     1  UNL1        0.1141
     27 C          62.4334   85.1507   14.0028 C.3     1  UNL1        0.0941
     28 N          63.0887   84.1958   14.9563 N.3     1  UNL1       -0.2676
     29 C          63.9724   83.1022   14.4337 C.3     1  UNL1        0.0941
     30 C          64.2008   82.9634   12.9577 C.3     1  UNL1        0.1141
     31 C          62.8602   84.3347   16.4322 C.3     1  UNL1        0.1043
     32 C          62.7018   85.6960   17.0418 C.3     1  UNL1        0.1544
     33 O          61.3340   86.2888   17.2079 O.3     1  UNL1       -0.3805
     34 H          60.9457   86.4558   16.3349 H       1  UNL1        0.2105
@<TRIPOS>BOND
     1    19    20    1
     2     1    20    1
     3     1     2    1
     4     2     3    1
     5     3     4    1
     6     3     5    1
     7     5     6    1
     8     6    21    1
     9    21    22    1
    10    22    23    1
    11    23    24    2
    12    23    25   am
    13    25    26    1
    14    26    27    1
    15    27    28    1
    16    28    31    1
    17    31    32    1
    18    32    33    1
    19    28    29    1
    20    29    30    1
    21     6     7    1
    22     7     9    1
    23     9    10    2
    24     9    11    2
    25     9    12    1
    26    12    13   ar
    27    13    14   ar
    28    14    15   ar
    29    15    16    1
    30    15    17   ar
    31    17    18   ar
    32     7     1    1
    33    18    12   ar
    34    30    25    1
    35     4     8    1
    36    33    34    1
@<TRIPOS>MOLECULE
*****
 34 36 0 0 0
SMALL
GASTEIGER

@<TRIPOS>ATOM
      1 C          64.6683   91.6028   12.8106 C.3     1  UNL1        0.0821
      2 C          65.5016   92.3697   13.7941 C.3     1  UNL1        0.0470
      3 C          65.3915   92.0753   15.2608 C.3     1  UNL1        0.1134
      4 O          66.2249   92.8423   16.2443 O.3     1  UNL1       -0.3844
      5 C          64.4481   91.0139   15.7440 C.3     1  UNL1        0.0508
      6 C          63.6148   90.2470   14.7605 C.3     1  UNL1        0.1256
      7 N          63.7249   90.5414   13.2938 N.3     1  UNL1       -0.1544
      8 H          66.7754   93.4848   15.7699 H       1  UNL1        0.2103
      9 S          62.8915   89.7744   12.3102 S.O2    1  UNL1        0.0633
     10 O          63.7712   88.5745   12.5005 O.2     1  UNL1       -0.1528
     11 O          62.0117   90.9743   12.1200 O.2     1  UNL1       -0.1528
     12 C          62.0581   89.0075   11.3268 C.ar    1  UNL1        0.1223
     13 C          61.0542   89.7251   10.4739 C.ar    1  UNL1        0.0208
     14 C          60.2208   88.9581    9.4904 C.ar    1  UNL1        0.0128
     15 C          60.3913   87.4736    9.3598 C.ar    1  UNL1        0.0578
     16 CL         59.5579   86.7067    8.3763 Cl      1  UNL1       -0.0822
     17 C          61.3951   86.7560   10.2126 C.ar    1  UNL1        0.0128
     18 C          62.2285   87.5229   11.1961 C.ar    1  UNL1        0.0208
     19 C          66.0477   92.4704   10.7871 C.3     1  UNL1        0.0015
     20 C          64.7783   91.8972   11.3439 C.3     1  UNL1        0.0178
     21 C          62.6713   89.1856   15.2436 C.3     1  UNL1        0.2277
     22 O          63.2021   87.9823   15.9650 O.3     1  UNL1       -0.4330
     23 C          64.1693   87.0631   15.2796 C.2     1  UNL1        0.4050
     24 O          65.4966   87.5836   14.8133 O.2     1  UNL1       -0.2262
     25 N          63.8093   85.6236   15.0607 N.am    1  UNL1       -0.2432
     26 C          62.4821   85.1031   15.5270 C.3     1  UNL1        0.1141
     27 C          62.1221   83.6635   15.3080 C.3     1  UNL1        0.0941
     28 N          63.0894   82.7443   14.6227 N.3     1  UNL1       -0.2676
     29 C          64.4166   83.2648   14.1564 C.3     1  UNL1        0.0941
     30 C          64.7766   84.7045   14.3754 C.3     1  UNL1        0.1141
     31 C          62.7294   81.3048   14.4038 C.3     1  UNL1        0.1043
     32 C          61.5007   80.9498   13.6200 C.3     1  UNL1        0.1544
     33 O          60.2011   80.7111   14.3300 O.3     1  UNL1       -0.3805
     34 H          60.2758   79.9176   14.8830 H       1  UNL1        0.2105
@<TRIPOS>BOND
     1    19    20    1
     2     1    20    1
     3     1     2    1
     4     2     3    1
     5     3     4    1
     6     3     5    1
     7     5     6    1
     8     6    21    1
     9    21    22    1
    10    22    23    1
    11    23    24    2
    12    23    25   am
    13    25    26    1
    14    26    27    1
    15    27    28    1
    16    28    31    1
    17    31    32    1
    18    32    33    1
    19    28    29    1
    20    29    30    1
    21     6     7    1
    22     7     9    1
    23     9    10    2
    24     9    11    2
    25     9    12    1
    26    12    13   ar
    27    13    14   ar
    28    14    15   ar
    29    15    16    1
    30    15    17   ar
    31    17    18   ar
    32     7     1    1
    33    18    12   ar
    34    30    25    1
    35     4     8    1
    36    33    34    1
@<TRIPOS>MOLECULE
*****
 34 36 0 0 0
SMALL
GASTEIGER

@<TRIPOS>ATOM
      1 C          62.0695   89.8958   11.9275 C.3     1  UNL1        0.0821
      2 C          62.4080   90.7504   13.1129 C.3     1  UNL1        0.0470
      3 C          63.2452   90.1922   14.2253 C.3     1  UNL1        0.1134
      4 O          63.5837   91.0468   15.4107 O.3     1  UNL1       -0.3844
      5 C          63.7441   88.7795   14.1523 C.3     1  UNL1        0.0508
      6 C          63.4056   87.9249   12.9669 C.3     1  UNL1        0.1256
      7 N          62.5684   88.4831   11.8545 N.3     1  UNL1       -0.1544
      8 H          63.1863   91.9248   15.3003 H       1  UNL1        0.2103
      9 S          62.2299   87.6285   10.6691 S.O2    1  UNL1        0.0633
     10 O          61.2216   86.8843   11.4934 O.2     1  UNL1       -0.1528
     11 O          63.2382   88.3726    9.8448 O.2     1  UNL1       -0.1528
     12 C          61.8915   86.7739    9.4837 C.ar    1  UNL1        0.1223
     13 C          60.5127   86.8202    8.8949 C.ar    1  UNL1        0.0208
     14 C          60.1744   85.9656    7.7094 C.ar    1  UNL1        0.0128
     15 C          61.2148   85.0647    7.1129 C.ar    1  UNL1        0.0578
     16 CL         60.8764   84.2101    5.9275 Cl      1  UNL1       -0.0822
     17 C          62.5936   85.0184    7.7018 C.ar    1  UNL1        0.0128
     18 C          62.9320   85.8729    8.8871 C.ar    1  UNL1        0.0208
     19 C          59.7429   90.5426   10.9692 C.3     1  UNL1        0.0015
     20 C          61.2323   90.4540   10.8151 C.3     1  UNL1        0.0178
     21 C          63.9045   86.5121   12.8939 C.3     1  UNL1        0.2277
     22 O          64.2536   85.7741   14.1522 O.3     1  UNL1       -0.4330
     23 C          63.2870   84.7860   14.7350 C.2     1  UNL1        0.4050
     24 O          62.5190   85.1310   15.9764 O.2     1  UNL1       -0.2262
     25 N          63.0885   83.4531   14.0763 N.am    1  UNL1       -0.2432
     26 C          63.8565   83.1082   12.8349 C.3     1  UNL1        0.1141
     27 C          63.6579   81.7753   12.1762 C.3     1  UNL1        0.0941
     28 N          62.6913   80.7872   12.7590 N.3     1  UNL1       -0.2676
     29 C          61.9233   81.1322   14.0004 C.3     1  UNL1        0.0941
     30 C          62.1219   82.4652   14.6591 C.3     1  UNL1        0.1141
     31 C          62.4928   79.4543   12.1003 C.3     1  UNL1        0.1043
     32 C          62.8659   79.2666   10.6596 C.3     1  UNL1        0.1544
     33 O          62.8479   77.8950   10.0528 O.3     1  UNL1       -0.3805
     34 H          63.5316   77.3479   10.4701 H       1  UNL1        0.2105
@<TRIPOS>BOND
     1    19    20    1
     2     1    20    1
     3     1     2    1
     4     2     3    1
     5     3     4    1
     6     3     5    1
     7     5     6    1
     8     6    21    1
     9    21    22    1
    10    22    23    1
    11    23    24    2
    12    23    25   am
    13    25    26    1
    14    26    27    1
    15    27    28    1
    16    28    31    1
    17    31    32    1
    18    32    33    1
    19    28    29    1
    20    29    30    1
    21     6     7    1
    22     7     9    1
    23     9    10    2
    24     9    11    2
    25     9    12    1
    26    12    13   ar
    27    13    14   ar
    28    14    15   ar
    29    15    16    1
    30    15    17   ar
    31    17    18   ar
    32     7     1    1
    33    18    12   ar
    34    30    25    1
    35     4     8    1
    36    33    34    1
@<TRIPOS>MOLECULE
*****
 34 36 0 0 0
SMALL
GASTEIGER

@<TRIPOS>ATOM
      1 C          71.5130   71.4544   17.1869 C.3     1  UNL1        0.0821
      2 C          71.7559   71.8116   18.6233 C.3     1  UNL1        0.0470
      3 C          72.2879   73.1682   18.9792 C.3     1  UNL1        0.1134
      4 O          72.5308   73.5254   20.4157 O.3     1  UNL1       -0.3844
      5 C          72.5771   74.1676   17.8986 C.3     1  UNL1        0.0508
      6 C          72.3342   73.8104   16.4622 C.3     1  UNL1        0.1256
      7 N          71.8022   72.4538   16.1063 N.3     1  UNL1       -0.1544
      8 H          72.2941   72.7731   20.9804 H       1  UNL1        0.2103
      9 S          71.5593   72.0966   14.6698 S.O2    1  UNL1        0.0633
     10 O          70.1781   72.6748   14.7595 O.2     1  UNL1       -0.1528
     11 O          72.9404   71.5184   14.5801 O.2     1  UNL1       -0.1528
     12 C          71.3164   71.7394   13.2334 C.ar    1  UNL1        0.1223
     13 C          72.4374   71.8222   12.2401 C.ar    1  UNL1        0.0208
     14 C          72.1945   71.4650   10.8036 C.ar    1  UNL1        0.0128
     15 C          70.8307   71.0250   10.3604 C.ar    1  UNL1        0.0578
     16 CL         70.5879   70.6678    8.9240 Cl      1  UNL1       -0.0822
     17 C          69.7097   70.9422   11.3537 C.ar    1  UNL1        0.0128
     18 C          69.9526   71.2994   12.7901 C.ar    1  UNL1        0.0208
     19 C          71.8417   68.8831   17.0135 C.3     1  UNL1        0.0015
     20 C          70.9810   70.0979   16.8310 C.3     1  UNL1        0.0178
     21 C          72.6234   74.8097   15.3816 C.3     1  UNL1        0.2277
     22 O          71.8262   76.0777   15.2998 O.3     1  UNL1       -0.4330
     23 C          72.5280   77.4002   15.2074 C.2     1  UNL1        0.4050
     24 O          73.2035   77.9768   16.4162 O.2     1  UNL1       -0.2262
     25 N          72.5541   78.1462   13.9064 N.am    1  UNL1       -0.2432
     26 C          71.8785   77.5696   12.6976 C.3     1  UNL1        0.1141
     27 C          71.9047   78.3155   11.3965 C.3     1  UNL1        0.0941
     28 N          72.6065   79.6381   11.3041 N.3     1  UNL1       -0.2676
     29 C          73.2821   80.2146   12.5129 C.3     1  UNL1        0.0941
     30 C          73.2559   79.4686   13.8141 C.3     1  UNL1        0.1141
     31 C          72.6327   80.3840   10.0030 C.3     1  UNL1        0.1043
     32 C          73.1587   81.7879    9.9538 C.3     1  UNL1        0.1544
     33 O          72.2632   82.9373   10.3101 O.3     1  UNL1       -0.3805
     34 H          71.5513   83.0076    9.6550 H       1  UNL1        0.2105
@<TRIPOS>BOND
     1    19    20    1
     2     1    20    1
     3     1     2    1
     4     2     3    1
     5     3     4    1
     6     3     5    1
     7     5     6    1
     8     6    21    1
     9    21    22    1
    10    22    23    1
    11    23    24    2
    12    23    25   am
    13    25    26    1
    14    26    27    1
    15    27    28    1
    16    28    31    1
    17    31    32    1
    18    32    33    1
    19    28    29    1
    20    29    30    1
    21     6     7    1
    22     7     9    1
    23     9    10    2
    24     9    11    2
    25     9    12    1
    26    12    13   ar
    27    13    14   ar
    28    14    15   ar
    29    15    16    1
    30    15    17   ar
    31    17    18   ar
    32     7     1    1
    33    18    12   ar
    34    30    25    1
    35     4     8    1
    36    33    34    1
@<TRIPOS>MOLECULE
*****
 34 36 0 0 0
SMALL
GASTEIGER

@<TRIPOS>ATOM
      1 C          60.6478   86.9870    8.4801 C.3     1  UNL1        0.0821
      2 C          60.2459   86.1313    7.3156 C.3     1  UNL1        0.0470
      3 C          61.0292   84.8948    6.9878 C.3     1  UNL1        0.1134
      4 O          60.6273   84.0391    5.8232 O.3     1  UNL1       -0.3844
      5 C          62.2144   84.5140    7.8246 C.3     1  UNL1        0.0508
      6 C          62.6163   85.3697    8.9891 C.3     1  UNL1        0.1256
      7 N          61.8330   86.6062    9.3169 N.3     1  UNL1       -0.1544
      8 H          59.8477   84.4240    5.3930 H       1  UNL1        0.2103
      9 S          62.2349   87.4620   10.4815 S.O2    1  UNL1        0.0633
     10 O          61.5110   86.5351   11.4125 O.2     1  UNL1       -0.1528
     11 O          62.9589   88.3888    9.5506 O.2     1  UNL1       -0.1528
     12 C          62.6369   88.3177   11.6460 C.ar    1  UNL1        0.1223
     13 C          62.1828   89.7454   11.7197 C.ar    1  UNL1        0.0208
     14 C          62.5848   90.6011   12.8843 C.ar    1  UNL1        0.0128
     15 C          63.4408   90.0291   13.9752 C.ar    1  UNL1        0.0578
     16 CL         63.8428   90.8848   15.1397 Cl      1  UNL1       -0.0822
     17 C          63.8949   88.6014   13.9015 C.ar    1  UNL1        0.0128
     18 C          63.4929   87.7457   12.7370 C.ar    1  UNL1        0.0208
     19 C          59.6653   89.2835    7.7655 C.3     1  UNL1        0.0015
     20 C          59.8645   88.2236    8.8079 C.3     1  UNL1        0.0178
     21 C          63.8016   84.9889    9.8260 C.3     1  UNL1        0.2277
     22 O          64.2554   83.5602    9.8775 O.3     1  UNL1       -0.4330
     23 C          63.6069   82.6012   10.8315 C.2     1  UNL1        0.4050
     24 O          63.2058   81.2337   10.3634 O.2     1  UNL1       -0.2262
     25 N          63.3597   83.0098   12.2534 N.am    1  UNL1       -0.2432
     26 C          63.7609   84.3772   12.7214 C.3     1  UNL1        0.1141
     27 C          63.5136   84.7858   14.1434 C.3     1  UNL1        0.0941
     28 N          62.8652   83.8268   15.0973 N.3     1  UNL1       -0.2676
     29 C          62.4640   82.4593   14.6293 C.3     1  UNL1        0.0941
     30 C          62.7113   82.0508   13.2073 C.3     1  UNL1        0.1141
     31 C          62.6179   84.2353   16.5193 C.3     1  UNL1        0.1043
     32 C          62.6381   85.6869   16.8969 C.3     1  UNL1        0.1544
     33 O          61.3555   86.3975   17.2129 O.3     1  UNL1       -0.3805
     34 H          60.8071   86.4452   16.4143 H       1  UNL1        0.2105
@<TRIPOS>BOND
     1    19    20    1
     2     1    20    1
     3     1     2    1
     4     2     3    1
     5     3     4    1
     6     3     5    1
     7     5     6    1
     8     6    21    1
     9    21    22    1
    10    22    23    1
    11    23    24    2
    12    23    25   am
    13    25    26    1
    14    26    27    1
    15    27    28    1
    16    28    31    1
    17    31    32    1
    18    32    33    1
    19    28    29    1
    20    29    30    1
    21     6     7    1
    22     7     9    1
    23     9    10    2
    24     9    11    2
    25     9    12    1
    26    12    13   ar
    27    13    14   ar
    28    14    15   ar
    29    15    16    1
    30    15    17   ar
    31    17    18   ar
    32     7     1    1
    33    18    12   ar
    34    30    25    1
    35     4     8    1
    36    33    34    1
@<TRIPOS>MOLECULE
*****
 34 36 0 0 0
SMALL
GASTEIGER

@<TRIPOS>ATOM
      1 C          60.2140   89.1469    9.7744 C.3     1  UNL1        0.0821
      2 C          59.2676   88.4560    8.8379 C.3     1  UNL1        0.0470
      3 C          59.5627   87.0631    8.3659 C.3     1  UNL1        0.1134
      4 O          58.6163   86.3723    7.4294 O.3     1  UNL1       -0.3844
      5 C          60.8041   86.3610    8.8306 C.3     1  UNL1        0.0508
      6 C          61.7504   87.0519    9.7671 C.3     1  UNL1        0.1256
      7 N          61.4554   88.4448   10.2390 N.3     1  UNL1       -0.1544
      8 H          57.8714   86.9608    7.2301 H       1  UNL1        0.2103
      9 S          62.4018   89.1356   11.1756 S.O2    1  UNL1        0.0633
     10 O          61.7479   88.4528   12.3401 O.2     1  UNL1       -0.1528
     11 O          63.0557   89.8184   10.0111 O.2     1  UNL1       -0.1528
     12 C          63.3482   89.8264   12.1121 C.ar    1  UNL1        0.1223
     13 C          63.7743   89.1503   13.3815 C.ar    1  UNL1        0.0208
     14 C          64.7208   89.8412   14.3180 C.ar    1  UNL1        0.0128
     15 C          65.2411   91.2081   13.9851 C.ar    1  UNL1        0.0578
     16 CL         66.1875   91.8989   14.9215 Cl      1  UNL1       -0.0822
     17 C          64.8150   91.8842   12.7157 C.ar    1  UNL1        0.0128
     18 C          63.8686   91.1934   11.7792 C.ar    1  UNL1        0.0208
     19 C          59.2367   90.7564   11.5645 C.3     1  UNL1        0.0015
     20 C          59.9189   90.5398   10.2463 C.3     1  UNL1        0.0178
     21 C          62.9919   86.3498   10.2318 C.3     1  UNL1        0.2277
     22 O          63.0392   84.8508   10.2619 O.3     1  UNL1       -0.4330
     23 C          62.7089   84.1153   11.5268 C.2     1  UNL1        0.4050
     24 O          62.3648   84.8796   12.7708 O.2     1  UNL1       -0.2262
     25 N          62.7227   82.6155   11.5477 N.am    1  UNL1       -0.2432
     26 C          63.0667   81.8512   10.3037 C.3     1  UNL1        0.1141
     27 C          63.0805   80.3515   10.3246 C.3     1  UNL1        0.0941
     28 N          62.7502   79.6159   11.5895 N.3     1  UNL1       -0.2676
     29 C          62.4062   80.3802   12.8335 C.3     1  UNL1        0.0941
     30 C          62.3924   81.8800   12.8125 C.3     1  UNL1        0.1141
     31 C          62.7640   78.1162   11.6104 C.3     1  UNL1        0.1043
     32 C          62.9070   77.3495   10.3291 C.3     1  UNL1        0.1544
     33 O          62.7805   75.8549   10.3312 O.3     1  UNL1       -0.3805
     34 H          63.5147   75.4690   10.8341 H       1  UNL1        0.2105
@<TRIPOS>BOND
     1    19    20    1
     2     1    20    1
     3     1     2    1
     4     2     3    1
     5     3     4    1
     6     3     5    1
     7     5     6    1
     8     6    21    1
     9    21    22    1
    10    22    23    1
    11    23    24    2
    12    23    25   am
    13    25    26    1
    14    26    27    1
    15    27    28    1
    16    28    31    1
    17    31    32    1
    18    32    33    1
    19    28    29    1
    20    29    30    1
    21     6     7    1
    22     7     9    1
    23     9    10    2
    24     9    11    2
    25     9    12    1
    26    12    13   ar
    27    13    14   ar
    28    14    15   ar
    29    15    16    1
    30    15    17   ar
    31    17    18   ar
    32     7     1    1
    33    18    12   ar
    34    30    25    1
    35     4     8    1
    36    33    34    1
