@<TRIPOS>MOLECULE
*****
 32 34 0 0 0
SMALL
GASTEIGER

@<TRIPOS>ATOM
      1 C          64.3795   89.3038   14.7539 C.3     1  UNL1        0.1351
      2 N          64.4140   90.2838   13.6188 N.ar    1  UNL1       -0.2760
      3 C          65.3143   91.4815   13.6890 C.ar    1  UNL1        0.2966
      4 O          66.1802   91.6992   14.8943 O.2     1  UNL1       -0.2636
      5 C          65.3487   92.4614   12.5538 C.ar    1  UNL1        0.2013
      6 C          64.4828   92.2437   11.3485 C.ar    1  UNL1        0.0470
      7 C          63.5825   91.0460   11.2783 C.ar    1  UNL1        0.0567
      8 C          62.7166   90.8282   10.0730 C.ar    1  UNL1        0.1049
      9 N          61.8163   89.6306   10.0028 N.ar    1  UNL1       -0.2122
     10 C          61.7818   88.6506   11.1380 C.ar    1  UNL1        0.2182
     11 N          62.6477   88.8683   12.3433 N.ar    1  UNL1       -0.1963
     12 C          63.5480   90.0660   12.4135 C.ar    1  UNL1        0.1506
     13 N          60.8815   87.4529   11.0678 N.pl3   1  UNL1       -0.3044
     14 H          60.0700   87.4138   11.6238 H       1  UNL1        0.1496
     15 C          61.2175   86.3148   10.1503 C.3     1  UNL1        0.0767
     16 C          60.5004   86.1702    8.8407 C.3     1  UNL1        0.0514
     17 C          59.4029   87.1259    8.4771 C.3     1  UNL1        0.1389
     18 O          58.2019   86.6369    7.7233 O.3     1  UNL1       -0.3819
     19 H          58.4708   86.3531    6.8356 H       1  UNL1        0.2104
     20 C          62.2706   85.3212   10.5424 C.3     1  UNL1        0.0514
     21 C          62.4642   84.9640   11.9864 C.3     1  UNL1        0.1389
     22 O          63.0294   85.9748   12.9397 O.3     1  UNL1       -0.3819
     23 H          63.9477   86.1706   12.6964 H       1  UNL1        0.2104
     24 O          66.2491   93.6591   12.6241 O.3     1  UNL1       -0.4464
     25 C          66.5377   94.4541   11.3853 C.ar    1  UNL1        0.1729
     26 C          66.0930   95.8835   11.2908 C.ar    1  UNL1        0.0421
     27 C          66.3817   96.6785   10.0520 C.ar    1  UNL1        0.0329
     28 C          67.1150   96.0440    8.9076 C.ar    1  UNL1        0.1426
     29 F          67.4037   96.8390    7.6688 F       1  UNL1       -0.2041
     30 C          67.5597   94.6146    9.0020 C.ar    1  UNL1        0.0624
     31 C          67.2711   93.8196   10.2409 C.ar    1  UNL1        0.1766
     32 F          67.7157   92.3901   10.3354 F       1  UNL1       -0.2009
@<TRIPOS>BOND
     1     1     2    1
     2     2     3   ar
     3     3     4    2
     4     3     5   ar
     5     5    24    1
     6    24    25    1
     7    25    26   ar
     8    26    27   ar
     9    27    28   ar
    10    28    29    1
    11    28    30   ar
    12    30    31   ar
    13    31    32    1
    14     5     6   ar
    15     6     7   ar
    16     7     8   ar
    17     8     9   ar
    18     9    10   ar
    19    10    13    1
    20    13    15    1
    21    15    16    1
    22    16    17    1
    23    17    18    1
    24    15    20    1
    25    20    21    1
    26    21    22    1
    27    10    11   ar
    28    11    12   ar
    29    12     2   ar
    30    31    25   ar
    31    12     7   ar
    32    13    14    1
    33    18    19    1
    34    22    23    1
@<TRIPOS>MOLECULE
*****
 32 34 0 0 0
SMALL
GASTEIGER

@<TRIPOS>ATOM
      1 C          64.3417   89.1002   14.6376 C.3     1  UNL1        0.1351
      2 N          64.3566   90.1319   13.5488 N.ar    1  UNL1       -0.2760
      3 C          65.2421   91.3366   13.6692 C.ar    1  UNL1        0.2966
      4 O          66.1129   91.5095   14.8784 O.2     1  UNL1       -0.2636
      5 C          65.2570   92.3683   12.5805 C.ar    1  UNL1        0.2013
      6 C          64.3863   92.1954   11.3714 C.ar    1  UNL1        0.0470
      7 C          63.5007   90.9907   11.2510 C.ar    1  UNL1        0.0567
      8 C          62.6300   90.8177   10.0419 C.ar    1  UNL1        0.1049
      9 N          61.7444   89.6131    9.9215 N.ar    1  UNL1       -0.2122
     10 C          61.7295   88.5814   11.0102 C.ar    1  UNL1        0.2182
     11 N          62.6002   88.7543   12.2193 N.ar    1  UNL1       -0.1963
     12 C          63.4858   89.9589   12.3397 C.ar    1  UNL1        0.1506
     13 N          60.8439   87.3767   10.8898 N.pl3   1  UNL1       -0.3044
     14 H          60.0000   87.3336   11.3950 H       1  UNL1        0.1496
     15 C          61.2441   86.2376    9.9997 C.3     1  UNL1        0.0767
     16 C          62.3182   85.2860   10.4365 C.3     1  UNL1        0.0514
     17 C          62.4635   84.9336   11.8872 C.3     1  UNL1        0.1389
     18 O          63.0077   85.9435   12.8535 O.3     1  UNL1       -0.3819
     19 H          63.9349   86.1302   12.6382 H       1  UNL1        0.2104
     20 C          60.5701   86.0500    8.6728 C.3     1  UNL1        0.0514
     21 C          59.5905   87.0726    8.1780 C.3     1  UNL1        0.1389
     22 O          58.1946   86.6603    7.8158 O.3     1  UNL1       -0.3819
     23 H          58.2207   86.0736    7.0438 H       1  UNL1        0.2104
     24 O          66.1426   93.5730   12.7009 O.3     1  UNL1       -0.4464
     25 C          66.5266   94.3472   11.4749 C.ar    1  UNL1        0.1729
     26 C          66.1295   95.7876   11.3425 C.ar    1  UNL1        0.0421
     27 C          66.5134   96.5618   10.1165 C.ar    1  UNL1        0.0329
     28 C          67.2944   95.8955    9.0227 C.ar    1  UNL1        0.1426
     29 F          67.6784   96.6697    7.7967 F       1  UNL1       -0.2041
     30 C          67.6915   94.4551    9.1551 C.ar    1  UNL1        0.0624
     31 C          67.3076   93.6809   10.3812 C.ar    1  UNL1        0.1766
     32 F          67.7047   92.2405   10.5136 F       1  UNL1       -0.2009
@<TRIPOS>BOND
     1     1     2    1
     2     2     3   ar
     3     3     4    2
     4     3     5   ar
     5     5    24    1
     6    24    25    1
     7    25    26   ar
     8    26    27   ar
     9    27    28   ar
    10    28    29    1
    11    28    30   ar
    12    30    31   ar
    13    31    32    1
    14     5     6   ar
    15     6     7   ar
    16     7     8   ar
    17     8     9   ar
    18     9    10   ar
    19    10    13    1
    20    13    15    1
    21    15    16    1
    22    16    17    1
    23    17    18    1
    24    15    20    1
    25    20    21    1
    26    21    22    1
    27    10    11   ar
    28    11    12   ar
    29    12     2   ar
    30    31    25   ar
    31    12     7   ar
    32    13    14    1
    33    18    19    1
    34    22    23    1
@<TRIPOS>MOLECULE
*****
 32 34 0 0 0
SMALL
GASTEIGER

@<TRIPOS>ATOM
      1 C          64.5237   88.9648   14.9221 C.3     1  UNL1        0.1351
      2 N          64.4006   89.9011   13.7567 N.ar    1  UNL1       -0.2760
      3 C          65.0469   91.2536   13.8097 C.ar    1  UNL1        0.2966
      4 O          65.8164   91.6699   15.0282 O.2     1  UNL1       -0.2636
      5 C          64.9238   92.1899   12.6443 C.ar    1  UNL1        0.2013
      6 C          64.1543   91.7737   11.4259 C.ar    1  UNL1        0.0470
      7 C          63.5079   90.4210   11.3728 C.ar    1  UNL1        0.0567
      8 C          62.7385   90.0048   10.1544 C.ar    1  UNL1        0.1049
      9 N          62.0922   88.6523   10.1013 N.ar    1  UNL1       -0.2122
     10 C          62.2153   87.7160   11.2667 C.ar    1  UNL1        0.2182
     11 N          62.9847   88.1322   12.4852 N.ar    1  UNL1       -0.1963
     12 C          63.6311   89.4847   12.5382 C.ar    1  UNL1        0.1506
     13 N          61.5689   86.3634   11.2137 N.pl3   1  UNL1       -0.3044
     14 H          60.5982   86.2870   11.0682 H       1  UNL1        0.1496
     15 C          62.4015   85.1271   11.3823 C.3     1  UNL1        0.0767
     16 C          62.5914   84.5309   12.7456 C.3     1  UNL1        0.0514
     17 C          63.7835   84.9131   13.5719 C.3     1  UNL1        0.1389
     18 O          64.9772   84.0068   13.6305 O.3     1  UNL1       -0.3819
     19 H          64.7327   83.1782   14.0717 H       1  UNL1        0.2104
     20 C          63.0442   84.4871   10.1876 C.3     1  UNL1        0.0514
     21 C          63.6722   83.1304   10.3106 C.3     1  UNL1        0.1389
     22 O          65.0615   82.9940   10.8597 O.3     1  UNL1       -0.3819
     23 H          65.6919   83.4101   10.2512 H       1  UNL1        0.2104
     24 O          65.5701   93.5425   12.6974 O.3     1  UNL1       -0.4464
     25 C          66.1336   94.1540   11.4490 C.ar    1  UNL1        0.1729
     26 C          65.6827   95.5161   11.0116 C.ar    1  UNL1        0.0421
     27 C          66.2461   96.1276    9.7632 C.ar    1  UNL1        0.0329
     28 C          67.2604   95.3770    8.9521 C.ar    1  UNL1        0.1426
     29 F          67.8239   95.9885    7.7037 F       1  UNL1       -0.2041
     30 C          67.7113   94.0148    9.3895 C.ar    1  UNL1        0.0624
     31 C          67.1478   93.4034   10.6380 C.ar    1  UNL1        0.1766
     32 F          67.5986   92.0412   11.0754 F       1  UNL1       -0.2009
@<TRIPOS>BOND
     1     1     2    1
     2     2     3   ar
     3     3     4    2
     4     3     5   ar
     5     5    24    1
     6    24    25    1
     7    25    26   ar
     8    26    27   ar
     9    27    28   ar
    10    28    29    1
    11    28    30   ar
    12    30    31   ar
    13    31    32    1
    14     5     6   ar
    15     6     7   ar
    16     7     8   ar
    17     8     9   ar
    18     9    10   ar
    19    10    13    1
    20    13    15    1
    21    15    16    1
    22    16    17    1
    23    17    18    1
    24    15    20    1
    25    20    21    1
    26    21    22    1
    27    10    11   ar
    28    11    12   ar
    29    12     2   ar
    30    31    25   ar
    31    12     7   ar
    32    13    14    1
    33    18    19    1
    34    22    23    1
@<TRIPOS>MOLECULE
*****
 32 34 0 0 0
SMALL
GASTEIGER

@<TRIPOS>ATOM
      1 C          64.3859   89.4833   14.5660 C.3     1  UNL1        0.1351
      2 N          64.4420   90.4690   13.4367 N.ar    1  UNL1       -0.2760
      3 C          65.3587   91.6533   13.5199 C.ar    1  UNL1        0.2966
      4 O          66.2194   91.8520   14.7323 O.2     1  UNL1       -0.2636
      5 C          65.4149   92.6391   12.3906 C.ar    1  UNL1        0.2013
      6 C          64.5543   92.4405   11.1783 C.ar    1  UNL1        0.0470
      7 C          63.6375   91.2561   11.0951 C.ar    1  UNL1        0.0567
      8 C          62.7769   91.0575    9.8827 C.ar    1  UNL1        0.1049
      9 N          61.8601   89.8732    9.7996 N.ar    1  UNL1       -0.2122
     10 C          61.8040   88.8875   10.9288 C.ar    1  UNL1        0.2182
     11 N          62.6646   89.0861   12.1412 N.ar    1  UNL1       -0.1963
     12 C          63.5813   90.2704   12.2243 C.ar    1  UNL1        0.1506
     13 N          60.8872   87.7031   10.8456 N.pl3   1  UNL1       -0.3044
     14 H          60.3809   87.4158   11.6396 H       1  UNL1        0.1496
     15 C          60.7419   86.9565    9.5528 C.3     1  UNL1        0.0767
     16 C          59.4614   87.0435    8.7763 C.3     1  UNL1        0.0514
     17 C          59.3190   88.0521    7.6752 C.3     1  UNL1        0.1389
     18 O          59.8141   89.4540    7.8737 O.3     1  UNL1       -0.3819
     19 H          59.2863   89.8890    8.5616 H       1  UNL1        0.2104
     20 C          61.8770   86.1229    9.0364 C.3     1  UNL1        0.0514
     21 C          61.6412   85.1375    7.9303 C.3     1  UNL1        0.1389
     22 O          62.7019   84.9031    6.8959 O.3     1  UNL1       -0.3819
     23 H          62.8257   85.7095    6.3713 H       1  UNL1        0.2104
     24 O          66.3317   93.8234   12.4738 O.3     1  UNL1       -0.4464
     25 C          66.6925   94.5813   11.2307 C.ar    1  UNL1        0.1729
     26 C          67.3017   93.8618   10.0640 C.ar    1  UNL1        0.0421
     27 C          67.6626   94.6197    8.8209 C.ar    1  UNL1        0.0329
     28 C          67.4143   96.0971    8.7444 C.ar    1  UNL1        0.1426
     29 F          67.7752   96.8549    7.5013 F       1  UNL1       -0.2041
     30 C          66.8051   96.8165    9.9112 C.ar    1  UNL1        0.0624
     31 C          66.4443   96.0586   11.1543 C.ar    1  UNL1        0.1766
     32 F          65.8351   96.7780   12.3211 F       1  UNL1       -0.2009
@<TRIPOS>BOND
     1     1     2    1
     2     2     3   ar
     3     3     4    2
     4     3     5   ar
     5     5    24    1
     6    24    25    1
     7    25    26   ar
     8    26    27   ar
     9    27    28   ar
    10    28    29    1
    11    28    30   ar
    12    30    31   ar
    13    31    32    1
    14     5     6   ar
    15     6     7   ar
    16     7     8   ar
    17     8     9   ar
    18     9    10   ar
    19    10    13    1
    20    13    15    1
    21    15    16    1
    22    16    17    1
    23    17    18    1
    24    15    20    1
    25    20    21    1
    26    21    22    1
    27    10    11   ar
    28    11    12   ar
    29    12     2   ar
    30    31    25   ar
    31    12     7   ar
    32    13    14    1
    33    18    19    1
    34    22    23    1
@<TRIPOS>MOLECULE
*****
 32 34 0 0 0
SMALL
GASTEIGER

@<TRIPOS>ATOM
      1 C          63.1909   91.2418   10.8497 C.3     1  UNL1        0.1351
      2 N          63.7314   91.1687   12.2470 N.ar    1  UNL1       -0.2760
      3 C          63.1520   90.1901   13.2250 C.ar    1  UNL1        0.2966
      4 O          62.0321   89.2845   12.8058 O.2     1  UNL1       -0.2636
      5 C          63.6925   90.1171   14.6224 C.ar    1  UNL1        0.2013
      6 C          64.8124   91.0226   15.0416 C.ar    1  UNL1        0.0470
      7 C          65.3918   92.0013   14.0636 C.ar    1  UNL1        0.0567
      8 C          66.5116   92.9068   14.4829 C.ar    1  UNL1        0.1049
      9 N          67.0910   93.8854   13.5048 N.ar    1  UNL1       -0.2122
     10 C          66.5505   93.9585   12.1075 C.ar    1  UNL1        0.2182
     11 N          65.4307   93.0530   11.6882 N.ar    1  UNL1       -0.1963
     12 C          64.8513   92.0744   12.6663 C.ar    1  UNL1        0.1506
     13 N          67.1299   94.9372   11.1294 N.pl3   1  UNL1       -0.3044
     14 H          67.7533   95.6330   11.4401 H       1  UNL1        0.1496
     15 C          66.7597   94.8556    9.6782 C.3     1  UNL1        0.0767
     16 C          65.5521   95.5861    9.1700 C.3     1  UNL1        0.0514
     17 C          65.0906   96.8389    9.8537 C.3     1  UNL1        0.1389
     18 O          64.8918   96.8523   11.3404 O.3     1  UNL1       -0.3819
     19 H          64.1594   96.2607   11.5740 H       1  UNL1        0.2104
     20 C          67.5969   94.0436    8.7350 C.3     1  UNL1        0.0514
     21 C          68.1537   92.7218    9.1745 C.3     1  UNL1        0.1389
     22 O          69.3604   92.6748   10.0642 O.3     1  UNL1       -0.3819
     23 H          70.1287   93.0236    9.5857 H       1  UNL1        0.2104
     24 O          63.1131   89.1384   15.6004 O.3     1  UNL1       -0.4464
     25 C          63.5149   87.6944   15.5438 C.ar    1  UNL1        0.1729
     26 C          64.2778   87.1739   14.3618 C.ar    1  UNL1        0.0421
     27 C          64.6797   85.7299   14.3052 C.ar    1  UNL1        0.0329
     28 C          64.3187   84.8062   15.4307 C.ar    1  UNL1        0.1426
     29 F          64.7206   83.3622   15.3741 F       1  UNL1       -0.2041
     30 C          63.5558   85.3267   16.6127 C.ar    1  UNL1        0.0624
     31 C          63.1539   86.7708   16.6692 C.ar    1  UNL1        0.1766
     32 F          62.3910   87.2912   17.8512 F       1  UNL1       -0.2009
@<TRIPOS>BOND
     1     1     2    1
     2     2     3   ar
     3     3     4    2
     4     3     5   ar
     5     5    24    1
     6    24    25    1
     7    25    26   ar
     8    26    27   ar
     9    27    28   ar
    10    28    29    1
    11    28    30   ar
    12    30    31   ar
    13    31    32    1
    14     5     6   ar
    15     6     7   ar
    16     7     8   ar
    17     8     9   ar
    18     9    10   ar
    19    10    13    1
    20    13    15    1
    21    15    16    1
    22    16    17    1
    23    17    18    1
    24    15    20    1
    25    20    21    1
    26    21    22    1
    27    10    11   ar
    28    11    12   ar
    29    12     2   ar
    30    31    25   ar
    31    12     7   ar
    32    13    14    1
    33    18    19    1
    34    22    23    1
@<TRIPOS>MOLECULE
*****
 32 34 0 0 0
SMALL
GASTEIGER

@<TRIPOS>ATOM
      1 C          65.3308   90.2001   14.7433 C.3     1  UNL1        0.1351
      2 N          64.5214   90.0658   13.4876 N.ar    1  UNL1       -0.2760
      3 C          63.6064   88.8910   13.3072 C.ar    1  UNL1        0.2966
      4 O          63.5008   87.8504   14.3825 O.2     1  UNL1       -0.2636
      5 C          62.7970   88.7566   12.0514 C.ar    1  UNL1        0.2013
      6 C          62.9025   89.7971   10.9762 C.ar    1  UNL1        0.0470
      7 C          63.8175   90.9720   11.1566 C.ar    1  UNL1        0.0567
      8 C          63.9231   92.0125   10.0813 C.ar    1  UNL1        0.1049
      9 N          64.8381   93.1873   10.2618 N.ar    1  UNL1       -0.2122
     10 C          65.6475   93.3216   11.5175 C.ar    1  UNL1        0.2182
     11 N          65.5419   92.2811   12.5927 N.ar    1  UNL1       -0.1963
     12 C          64.6270   91.1063   12.4123 C.ar    1  UNL1        0.1506
     13 N          66.5625   94.4965   11.6979 N.pl3   1  UNL1       -0.3044
     14 H          67.0934   94.5849   12.5222 H       1  UNL1        0.1496
     15 C          66.6685   95.5367   10.6224 C.3     1  UNL1        0.0767
     16 C          65.8218   96.7731   10.6887 C.3     1  UNL1        0.0514
     17 C          64.5451   96.8507    9.9051 C.3     1  UNL1        0.1389
     18 O          64.5844   96.8530    8.4056 O.3     1  UNL1       -0.3819
     19 H          65.0154   97.6645    8.0947 H       1  UNL1        0.2104
     20 C          67.6212   95.3404    9.4805 C.3     1  UNL1        0.0514
     21 C          68.0366   93.9559    9.0798 C.3     1  UNL1        0.1389
     22 O          69.0073   93.1890    9.9281 O.3     1  UNL1       -0.3819
     23 H          69.8713   93.6295    9.9094 H       1  UNL1        0.2104
     24 O          61.8820   87.5817   11.8710 O.3     1  UNL1       -0.4464
     25 C          62.4236   86.2815   11.3553 C.ar    1  UNL1        0.1729
     26 C          62.8639   85.2181   12.3172 C.ar    1  UNL1        0.0421
     27 C          63.4056   83.9179   11.8014 C.ar    1  UNL1        0.0329
     28 C          63.5069   83.6811   10.3236 C.ar    1  UNL1        0.1426
     29 F          64.0486   82.3809    9.8078 F       1  UNL1       -0.2041
     30 C          63.0666   84.7445    9.3617 C.ar    1  UNL1        0.0624
     31 C          62.5250   86.0448    9.8776 C.ar    1  UNL1        0.1766
     32 F          62.0846   87.1082    8.9157 F       1  UNL1       -0.2009
@<TRIPOS>BOND
     1     1     2    1
     2     2     3   ar
     3     3     4    2
     4     3     5   ar
     5     5    24    1
     6    24    25    1
     7    25    26   ar
     8    26    27   ar
     9    27    28   ar
    10    28    29    1
    11    28    30   ar
    12    30    31   ar
    13    31    32    1
    14     5     6   ar
    15     6     7   ar
    16     7     8   ar
    17     8     9   ar
    18     9    10   ar
    19    10    13    1
    20    13    15    1
    21    15    16    1
    22    16    17    1
    23    17    18    1
    24    15    20    1
    25    20    21    1
    26    21    22    1
    27    10    11   ar
    28    11    12   ar
    29    12     2   ar
    30    31    25   ar
    31    12     7   ar
    32    13    14    1
    33    18    19    1
    34    22    23    1
@<TRIPOS>MOLECULE
*****
 32 34 0 0 0
SMALL
GASTEIGER

@<TRIPOS>ATOM
      1 C          63.0088   87.8713   17.8326 C.3     1  UNL1        0.1351
      2 N          63.3042   88.1911   16.3971 N.ar    1  UNL1       -0.2760
      3 C          63.4255   89.6197   15.9566 C.ar    1  UNL1        0.2966
      4 O          63.2514   90.7288   16.9515 O.2     1  UNL1       -0.2636
      5 C          63.7209   89.9395   14.5211 C.ar    1  UNL1        0.2013
      6 C          63.8949   88.8305   13.5262 C.ar    1  UNL1        0.0470
      7 C          63.7737   87.4017   13.9667 C.ar    1  UNL1        0.0567
      8 C          63.9477   86.2928   12.9718 C.ar    1  UNL1        0.1049
      9 N          63.8265   84.8641   13.4124 N.ar    1  UNL1       -0.2122
     10 C          63.5311   84.5444   14.8478 C.ar    1  UNL1        0.2182
     11 N          63.3570   85.6533   15.8427 N.ar    1  UNL1       -0.1963
     12 C          63.4783   87.0820   15.4022 C.ar    1  UNL1        0.1506
     13 N          63.4098   83.1156   15.2883 N.pl3   1  UNL1       -0.3044
     14 H          63.6983   82.8530   16.1922 H       1  UNL1        0.1496
     15 C          62.8489   82.0870   14.3517 C.3     1  UNL1        0.0767
     16 C          61.3661   81.8753   14.2710 C.3     1  UNL1        0.0514
     17 C          60.8149   80.4925   14.0861 C.3     1  UNL1        0.1389
     18 O          59.4123   80.1805   14.5165 O.3     1  UNL1       -0.3819
     19 H          59.3464   80.2538   15.4815 H       1  UNL1        0.2104
     20 C          63.7708   81.2702   13.4956 C.3     1  UNL1        0.0514
     21 C          63.9793   81.6368   12.0561 C.3     1  UNL1        0.1389
     22 O          65.0557   82.6109   11.6785 O.3     1  UNL1       -0.3819
     23 H          64.8414   83.4854   12.0394 H       1  UNL1        0.2104
     24 O          63.8421   91.3682   14.0806 O.3     1  UNL1       -0.4464
     25 C          64.8894   91.7583   13.0801 C.ar    1  UNL1        0.1729
     26 C          64.4969   92.0698   11.6663 C.ar    1  UNL1        0.0421
     27 C          65.5442   92.4598   10.6658 C.ar    1  UNL1        0.0329
     28 C          66.9840   92.5383   11.0791 C.ar    1  UNL1        0.1426
     29 F          68.0313   92.9284   10.0786 F       1  UNL1       -0.2041
     30 C          67.3765   92.2268   12.4929 C.ar    1  UNL1        0.0624
     31 C          66.3292   91.8368   13.4934 C.ar    1  UNL1        0.1766
     32 F          66.7217   91.5252   14.9072 F       1  UNL1       -0.2009
@<TRIPOS>BOND
     1     1     2    1
     2     2     3   ar
     3     3     4    2
     4     3     5   ar
     5     5    24    1
     6    24    25    1
     7    25    26   ar
     8    26    27   ar
     9    27    28   ar
    10    28    29    1
    11    28    30   ar
    12    30    31   ar
    13    31    32    1
    14     5     6   ar
    15     6     7   ar
    16     7     8   ar
    17     8     9   ar
    18     9    10   ar
    19    10    13    1
    20    13    15    1
    21    15    16    1
    22    16    17    1
    23    17    18    1
    24    15    20    1
    25    20    21    1
    26    21    22    1
    27    10    11   ar
    28    11    12   ar
    29    12     2   ar
    30    31    25   ar
    31    12     7   ar
    32    13    14    1
    33    18    19    1
    34    22    23    1
@<TRIPOS>MOLECULE
*****
 32 34 0 0 0
SMALL
GASTEIGER

@<TRIPOS>ATOM
      1 C          64.3504   87.3536   14.3803 C.3     1  UNL1        0.1351
      2 N          63.5933   87.8939   13.2035 N.ar    1  UNL1       -0.2760
      3 C          62.6224   87.0173   12.4696 C.ar    1  UNL1        0.2966
      4 O          62.4085   85.6001   12.9124 O.2     1  UNL1       -0.2636
      5 C          61.8653   87.5577   11.2928 C.ar    1  UNL1        0.2013
      6 C          62.0792   88.9747   10.8499 C.ar    1  UNL1        0.0470
      7 C          63.0502   89.8515   11.5839 C.ar    1  UNL1        0.0567
      8 C          63.2640   91.2685   11.1410 C.ar    1  UNL1        0.1049
      9 N          64.2349   92.1452   11.8749 N.ar    1  UNL1       -0.2122
     10 C          64.9920   91.6048   13.0517 C.ar    1  UNL1        0.2182
     11 N          64.7782   90.1878   13.4946 N.ar    1  UNL1       -0.1963
     12 C          63.8072   89.3111   12.7606 C.ar    1  UNL1        0.1506
     13 N          65.9630   92.4816   13.7857 N.pl3   1  UNL1       -0.3044
     14 H          65.6389   93.2690   14.2798 H       1  UNL1        0.1496
     15 C          67.4276   92.1586   13.7667 C.3     1  UNL1        0.0767
     16 C          68.0948   91.7764   12.4787 C.3     1  UNL1        0.0514
     17 C          67.6737   92.4265   11.1942 C.3     1  UNL1        0.1389
     18 O          66.9934   93.7631   11.2179 O.3     1  UNL1       -0.3819
     19 H          66.1281   93.6779   11.6480 H       1  UNL1        0.2104
     20 C          68.2252   92.2178   15.0357 C.3     1  UNL1        0.0514
     21 C          67.7564   93.0708   16.1771 C.3     1  UNL1        0.1389
     22 O          66.3053   93.0839   16.5568 O.3     1  UNL1       -0.3819
     23 H          65.7863   93.4760   15.8373 H       1  UNL1        0.2104
     24 O          60.8944   86.6809   10.5588 O.3     1  UNL1       -0.4464
     25 C          61.2844   86.0620    9.2493 C.ar    1  UNL1        0.1729
     26 C          62.6657   85.5075    9.0636 C.ar    1  UNL1        0.0421
     27 C          63.0557   84.8887    7.7541 C.ar    1  UNL1        0.0329
     28 C          62.0643   84.8243    6.6302 C.ar    1  UNL1        0.1426
     29 F          62.4543   84.2054    5.3207 F       1  UNL1       -0.2041
     30 C          60.6830   85.3788    6.8159 C.ar    1  UNL1        0.0624
     31 C          60.2930   85.9977    8.1255 C.ar    1  UNL1        0.1766
     32 F          58.9117   86.5522    8.3112 F       1  UNL1       -0.2009
@<TRIPOS>BOND
     1     1     2    1
     2     2     3   ar
     3     3     4    2
     4     3     5   ar
     5     5    24    1
     6    24    25    1
     7    25    26   ar
     8    26    27   ar
     9    27    28   ar
    10    28    29    1
    11    28    30   ar
    12    30    31   ar
    13    31    32    1
    14     5     6   ar
    15     6     7   ar
    16     7     8   ar
    17     8     9   ar
    18     9    10   ar
    19    10    13    1
    20    13    15    1
    21    15    16    1
    22    16    17    1
    23    17    18    1
    24    15    20    1
    25    20    21    1
    26    21    22    1
    27    10    11   ar
    28    11    12   ar
    29    12     2   ar
    30    31    25   ar
    31    12     7   ar
    32    13    14    1
    33    18    19    1
    34    22    23    1
@<TRIPOS>MOLECULE
*****
 32 34 0 0 0
SMALL
GASTEIGER

@<TRIPOS>ATOM
      1 C          62.9934   90.0798   14.4415 C.3     1  UNL1        0.1351
      2 N          62.9497   90.4215   12.9816 N.ar    1  UNL1       -0.2760
      3 C          61.8938   89.8205   12.1019 C.ar    1  UNL1        0.2966
      4 O          60.8814   88.8778   12.6822 O.2     1  UNL1       -0.2636
      5 C          61.8501   90.1622   10.6420 C.ar    1  UNL1        0.2013
      6 C          62.8623   91.1048   10.0617 C.ar    1  UNL1        0.0470
      7 C          63.9183   91.7058   10.9414 C.ar    1  UNL1        0.0567
      8 C          64.9306   92.6485   10.3611 C.ar    1  UNL1        0.1049
      9 N          65.9865   93.2494   11.2408 N.ar    1  UNL1       -0.2122
     10 C          66.0302   92.9078   12.7007 C.ar    1  UNL1        0.2182
     11 N          65.0179   91.9651   13.2810 N.ar    1  UNL1       -0.1963
     12 C          63.9620   91.3642   12.4013 C.ar    1  UNL1        0.1506
     13 N          67.0862   93.5088   13.5803 N.pl3   1  UNL1       -0.3044
     14 H          67.5310   94.3457   13.3140 H       1  UNL1        0.1496
     15 C          67.4644   92.8347   14.8658 C.3     1  UNL1        0.0767
     16 C          68.6125   91.8697   14.8971 C.3     1  UNL1        0.0514
     17 C          69.6439   91.8956   13.8083 C.3     1  UNL1        0.1389
     18 O          69.2542   91.5644   12.3982 O.3     1  UNL1       -0.3819
     19 H          68.9871   90.6333   12.3467 H       1  UNL1        0.2104
     20 C          66.6947   93.1254   16.1200 C.3     1  UNL1        0.0514
     21 C          65.4627   92.3335   16.4444 C.3     1  UNL1        0.1389
     22 O          64.3614   92.9564   17.2501 O.3     1  UNL1       -0.3819
     23 H          64.6800   93.1363   18.1485 H       1  UNL1        0.2104
     24 O          60.7941   89.5612    9.7624 O.3     1  UNL1       -0.4464
     25 C          61.0310   88.2332    9.1064 C.ar    1  UNL1        0.1729
     26 C          62.2490   87.4306    9.4560 C.ar    1  UNL1        0.0421
     27 C          62.4859   86.1026    8.8000 C.ar    1  UNL1        0.0329
     28 C          61.5047   85.5772    7.7944 C.ar    1  UNL1        0.1426
     29 F          61.7415   84.2492    7.1384 F       1  UNL1       -0.2041
     30 C          60.2866   86.3798    7.4448 C.ar    1  UNL1        0.0624
     31 C          60.0498   87.7078    8.1008 C.ar    1  UNL1        0.1766
     32 F          58.8318   88.5104    7.7512 F       1  UNL1       -0.2009
@<TRIPOS>BOND
     1     1     2    1
     2     2     3   ar
     3     3     4    2
     4     3     5   ar
     5     5    24    1
     6    24    25    1
     7    25    26   ar
     8    26    27   ar
     9    27    28   ar
    10    28    29    1
    11    28    30   ar
    12    30    31   ar
    13    31    32    1
    14     5     6   ar
    15     6     7   ar
    16     7     8   ar
    17     8     9   ar
    18     9    10   ar
    19    10    13    1
    20    13    15    1
    21    15    16    1
    22    16    17    1
    23    17    18    1
    24    15    20    1
    25    20    21    1
    26    21    22    1
    27    10    11   ar
    28    11    12   ar
    29    12     2   ar
    30    31    25   ar
    31    12     7   ar
    32    13    14    1
    33    18    19    1
    34    22    23    1
