@<TRIPOS>MOLECULE
*****
 34 37 0 0 0
SMALL
GASTEIGER

@<TRIPOS>ATOM
      1 C          64.1196   89.2678   14.9256 C.ar    1  UNL1        0.1335
      2 C          63.5189   89.3803   16.2954 C.ar    1  UNL1        0.0360
      3 C          62.9989   88.1563   16.9892 C.ar    1  UNL1        0.0251
      4 C          63.0797   86.8197   16.3131 C.ar    1  UNL1        0.1183
      5 N          62.6529   85.4484   16.7463 N.ar    1  UNL1       -0.2123
      6 C          62.9898   84.4884   15.6441 C.ar    1  UNL1        0.1959
      7 N          62.7362   83.0100   15.6543 N.pl3   1  UNL1       -0.3287
      8 N          63.6248   85.2664   14.5298 N.ar    1  UNL1       -0.2824
      9 C          63.6804   86.7072   14.9433 C.ar    1  UNL1        0.1651
     10 N          64.2003   87.9312   14.2495 N.ar    1  UNL1       -0.2120
     11 H          62.3116   82.5888   16.4363 H       1  UNL1        0.1451
     12 H          62.9944   82.4609   14.8790 H       1  UNL1        0.1451
     13 C          66.1995   94.1639   12.1503 C.3     1  UNL1        0.0897
     14 N          65.6795   92.9399   12.8441 N.3     1  UNL1       -0.2686
     15 C          64.6573   92.0732   12.1704 C.3     1  UNL1        0.0939
     16 C          64.1373   90.8491   12.8643 C.3     1  UNL1        0.1095
     17 N          64.6395   90.4918   14.2317 N.pl3   1  UNL1       -0.2903
     18 C          65.6618   91.3585   14.9054 C.3     1  UNL1        0.1095
     19 C          66.1818   92.5825   14.2116 C.3     1  UNL1        0.0939
     20 C          64.1178   84.7025   13.2302 C.3     1  UNL1        0.1438
     21 C          63.1435   84.1320   12.2425 C.3     1  UNL1        0.1561
     22 O          62.8307   82.6651   12.2593 O.3     1  UNL1       -0.3780
     23 H          62.1876   82.4637   11.5617 H       1  UNL1        0.2109
     24 C          62.4821   85.0285   11.2381 C.ar    1  UNL1        0.0167
     25 C          61.4933   86.0615   11.6911 C.ar    1  UNL1       -0.0011
     26 C          60.8319   86.9579   10.6867 C.ar    1  UNL1        0.0037
     27 C          61.1592   86.8214    9.2292 C.ar    1  UNL1        0.0722
     28 C          62.1480   85.7884    8.7762 C.ar    1  UNL1        0.0150
     29 C          62.8094   84.8920    9.7806 C.ar    1  UNL1        0.0559
     30 CL         63.7982   83.8590    9.3276 Cl      1  UNL1       -0.0825
     31 C          60.4977   87.7178    8.2248 C.3     1  UNL1        0.4186
     32 F          59.8363   88.6143    7.2204 F       1  UNL1       -0.1659
     33 F          60.9571   88.9201    8.9953 F       1  UNL1       -0.1659
     34 F          60.0384   86.5156    7.4543 F       1  UNL1       -0.1659
@<TRIPOS>BOND
     1    13    14    1
     2    14    15    1
     3    15    16    1
     4    16    17    1
     5    17     1    1
     6     1     2   ar
     7     2     3   ar
     8     3     4   ar
     9     4     5   ar
    10     5     6   ar
    11     6     7    1
    12     6     8   ar
    13     8    20    1
    14    20    21    1
    15    21    22    1
    16    21    24    1
    17    24    25   ar
    18    25    26   ar
    19    26    27   ar
    20    27    31    1
    21    31    32    1
    22    31    33    1
    23    31    34    1
    24    27    28   ar
    25    28    29   ar
    26    29    30    1
    27     8     9   ar
    28     9    10   ar
    29    17    18    1
    30    18    19    1
    31    19    14    1
    32    10     1   ar
    33     9     4   ar
    34    29    24   ar
    35     7    11    1
    36     7    12    1
    37    22    23    1
@<TRIPOS>MOLECULE
*****
 34 37 0 0 0
SMALL
GASTEIGER

@<TRIPOS>ATOM
      1 C          63.5902   85.3093   13.7788 C.ar    1  UNL1        0.1335
      2 C          64.4278   85.7556   14.9404 C.ar    1  UNL1        0.0360
      3 C          64.7478   87.2101   15.1191 C.ar    1  UNL1        0.0251
      4 C          64.2304   88.2182   14.1363 C.ar    1  UNL1        0.1183
      5 N          64.3809   89.7084   14.0538 N.ar    1  UNL1       -0.2123
      6 C          63.6363   90.1830   12.8412 C.ar    1  UNL1        0.1959
      7 N          63.5223   91.6048   12.3769 N.pl3   1  UNL1       -0.3287
      8 N          63.0257   88.9861   12.1743 N.ar    1  UNL1       -0.2824
      9 C          63.3929   87.7719   12.9747 C.ar    1  UNL1        0.1651
     10 N          63.0728   86.3174   12.7960 N.ar    1  UNL1       -0.2120
     11 H          63.9610   92.3252   12.8848 H       1  UNL1        0.1451
     12 H          63.0089   91.8177   11.5643 H       1  UNL1        0.1451
     13 C          62.3097   79.4912   13.0638 C.3     1  UNL1        0.0897
     14 N          62.6298   80.9457   13.2426 N.3     1  UNL1       -0.2686
     15 C          63.5753   81.6271   12.2982 C.3     1  UNL1        0.0939
     16 C          63.8955   83.0817   12.4770 C.3     1  UNL1        0.1095
     17 N          63.2701   83.8547   13.6001 N.pl3   1  UNL1       -0.2903
     18 C          62.3246   83.1733   14.5444 C.3     1  UNL1        0.1095
     19 C          62.0045   81.7188   14.3657 C.3     1  UNL1        0.0939
     20 C          62.1939   89.0009   10.9261 C.3     1  UNL1        0.1438
     21 C          61.1982   87.9075   10.6754 C.3     1  UNL1        0.1561
     22 O          60.0397   87.7194   11.6094 O.3     1  UNL1       -0.3780
     23 H          59.4968   86.9752   11.3054 H       1  UNL1        0.2109
     24 C          61.3610   87.0021    9.4906 C.ar    1  UNL1        0.0167
     25 C          62.6517   86.2674    9.2799 C.ar    1  UNL1       -0.0011
     26 C          62.8146   85.3620    8.0951 C.ar    1  UNL1        0.0037
     27 C          61.6868   85.1912    7.1210 C.ar    1  UNL1        0.0722
     28 C          60.3961   85.9259    7.3317 C.ar    1  UNL1        0.0150
     29 C          60.2333   86.8313    8.5165 C.ar    1  UNL1        0.0559
     30 CL         58.9426   87.5660    8.7272 Cl      1  UNL1       -0.0825
     31 C          61.8496   84.2858    5.9362 C.3     1  UNL1        0.4186
     32 F          62.0124   83.3804    4.7514 F       1  UNL1       -0.1659
     33 F          60.3879   83.9535    5.9893 F       1  UNL1       -0.1659
     34 F          63.3114   84.6181    5.8831 F       1  UNL1       -0.1659
@<TRIPOS>BOND
     1    13    14    1
     2    14    15    1
     3    15    16    1
     4    16    17    1
     5    17     1    1
     6     1     2   ar
     7     2     3   ar
     8     3     4   ar
     9     4     5   ar
    10     5     6   ar
    11     6     7    1
    12     6     8   ar
    13     8    20    1
    14    20    21    1
    15    21    22    1
    16    21    24    1
    17    24    25   ar
    18    25    26   ar
    19    26    27   ar
    20    27    31    1
    21    31    32    1
    22    31    33    1
    23    31    34    1
    24    27    28   ar
    25    28    29   ar
    26    29    30    1
    27     8     9   ar
    28     9    10   ar
    29    17    18    1
    30    18    19    1
    31    19    14    1
    32    10     1   ar
    33     9     4   ar
    34    29    24   ar
    35     7    11    1
    36     7    12    1
    37    22    23    1
@<TRIPOS>MOLECULE
*****
 34 37 0 0 0
SMALL
GASTEIGER

@<TRIPOS>ATOM
      1 C          64.5079   90.5641   14.2238 C.ar    1  UNL1        0.1335
      2 C          63.9281   91.2137   15.4452 C.ar    1  UNL1        0.0360
      3 C          63.3567   90.3684   16.5446 C.ar    1  UNL1        0.0251
      4 C          63.3651   88.8733   16.4226 C.ar    1  UNL1        0.1183
      5 N          62.8767   87.7890   17.3368 N.ar    1  UNL1       -0.2123
      6 C          63.1547   86.4692   16.6804 C.ar    1  UNL1        0.1959
      7 N          62.8296   85.1179   17.2447 N.pl3   1  UNL1       -0.3287
      8 N          63.8148   86.7379   15.3605 N.ar    1  UNL1       -0.2824
      9 C          63.9448   88.2237   15.2012 C.ar    1  UNL1        0.1651
     10 N          64.5162   89.0691   14.1018 N.ar    1  UNL1       -0.2120
     11 H          62.3934   85.0437   18.1242 H       1  UNL1        0.1451
     12 H          63.0525   84.3053   16.7357 H       1  UNL1        0.1451
     13 C          66.7937   93.9457    9.8260 C.3     1  UNL1        0.0897
     14 N          66.2222   93.1003   10.9254 N.3     1  UNL1       -0.2686
     15 C          64.8506   92.5103   10.7820 C.3     1  UNL1        0.0939
     16 C          64.2792   91.6649   11.8815 C.3     1  UNL1        0.1095
     17 N          65.0793   91.4095   13.1243 N.pl3   1  UNL1       -0.2903
     18 C          66.4509   91.9996   13.2676 C.3     1  UNL1        0.1095
     19 C          67.0224   92.8449   12.1682 C.3     1  UNL1        0.0939
     20 C          64.2658   85.7026   14.3733 C.3     1  UNL1        0.1438
     21 C          63.4572   85.4427   13.1369 C.3     1  UNL1        0.1561
     22 O          62.8093   86.5842   12.4108 O.3     1  UNL1       -0.3780
     23 H          62.3285   86.2455   11.6394 H       1  UNL1        0.2109
     24 C          63.2965   84.0414   12.6266 C.ar    1  UNL1        0.0167
     25 C          63.8493   83.6640   11.2842 C.ar    1  UNL1       -0.0011
     26 C          63.6886   82.2626   10.7740 C.ar    1  UNL1        0.0037
     27 C          62.9750   81.2387   11.6059 C.ar    1  UNL1        0.0722
     28 C          62.4221   81.6161   12.9483 C.ar    1  UNL1        0.0150
     29 C          62.5829   83.0174   13.4586 C.ar    1  UNL1        0.0559
     30 CL         62.0300   83.3948   14.8009 Cl      1  UNL1       -0.0825
     31 C          62.8143   79.8373   11.0956 C.3     1  UNL1        0.4186
     32 F          62.6535   78.4360   10.5854 F       1  UNL1       -0.1659
     33 F          63.1795   80.2979    9.7157 F       1  UNL1       -0.1659
     34 F          62.4490   79.3767   12.4756 F       1  UNL1       -0.1659
@<TRIPOS>BOND
     1    13    14    1
     2    14    15    1
     3    15    16    1
     4    16    17    1
     5    17     1    1
     6     1     2   ar
     7     2     3   ar
     8     3     4   ar
     9     4     5   ar
    10     5     6   ar
    11     6     7    1
    12     6     8   ar
    13     8    20    1
    14    20    21    1
    15    21    22    1
    16    21    24    1
    17    24    25   ar
    18    25    26   ar
    19    26    27   ar
    20    27    31    1
    21    31    32    1
    22    31    33    1
    23    31    34    1
    24    27    28   ar
    25    28    29   ar
    26    29    30    1
    27     8     9   ar
    28     9    10   ar
    29    17    18    1
    30    18    19    1
    31    19    14    1
    32    10     1   ar
    33     9     4   ar
    34    29    24   ar
    35     7    11    1
    36     7    12    1
    37    22    23    1
@<TRIPOS>MOLECULE
*****
 34 37 0 0 0
SMALL
GASTEIGER

@<TRIPOS>ATOM
      1 C          64.4769   90.3315   14.3767 C.ar    1  UNL1        0.1335
      2 C          63.8064   90.8995   15.5923 C.ar    1  UNL1        0.0360
      3 C          63.2118   89.9815   16.6188 C.ar    1  UNL1        0.0251
      4 C          63.2878   88.4954   16.4296 C.ar    1  UNL1        0.1183
      5 N          62.7957   87.3509   17.2652 N.ar    1  UNL1       -0.2123
      6 C          63.1621   86.0755   16.5659 C.ar    1  UNL1        0.1959
      7 N          62.8627   84.6874   17.0493 N.pl3   1  UNL1       -0.3287
      8 N          63.8806   86.4317   15.2983 N.ar    1  UNL1       -0.2824
      9 C          63.9583   87.9274   15.2141 C.ar    1  UNL1        0.1651
     10 N          64.5528   88.8454   14.1876 N.ar    1  UNL1       -0.2120
     11 H          62.3833   84.5548   17.8989 H       1  UNL1        0.1451
     12 H          63.1455   83.9090   16.5170 H       1  UNL1        0.1451
     13 C          66.8553   94.0035   10.2706 C.3     1  UNL1        0.0897
     14 N          66.2608   93.0855   11.2971 N.3     1  UNL1       -0.2686
     15 C          66.9879   92.8275   12.5835 C.3     1  UNL1        0.0939
     16 C          66.3932   91.9094   13.6100 C.3     1  UNL1        0.1095
     17 N          65.0716   91.2495   13.3502 N.pl3   1  UNL1       -0.2903
     18 C          64.3444   91.5075   12.0638 C.3     1  UNL1        0.1095
     19 C          64.9390   92.4255   11.0373 C.3     1  UNL1        0.0939
     20 C          64.4258   85.4626   14.2915 C.3     1  UNL1        0.1438
     21 C          63.5065   84.4934   13.6092 C.3     1  UNL1        0.1561
     22 O          62.9592   83.3193   14.3654 O.3     1  UNL1       -0.3780
     23 H          62.3867   82.7972   13.7818 H       1  UNL1        0.2109
     24 C          63.1344   84.6984   12.1706 C.ar    1  UNL1        0.0167
     25 C          62.2002   85.8079   11.7883 C.ar    1  UNL1       -0.0011
     26 C          61.8281   86.0129   10.3497 C.ar    1  UNL1        0.0037
     27 C          62.3902   85.1084    9.2934 C.ar    1  UNL1        0.0722
     28 C          63.3245   83.9989    9.6757 C.ar    1  UNL1        0.0150
     29 C          63.6966   83.7939   11.1143 C.ar    1  UNL1        0.0559
     30 CL         64.6308   82.6844   11.4966 Cl      1  UNL1       -0.0825
     31 C          62.0182   85.3134    7.8548 C.3     1  UNL1        0.4186
     32 F          61.6461   85.5184    6.4162 F       1  UNL1       -0.1659
     33 F          63.1545   84.4288    7.4349 F       1  UNL1       -0.1659
     34 F          60.8819   86.1980    8.2747 F       1  UNL1       -0.1659
@<TRIPOS>BOND
     1    13    14    1
     2    14    15    1
     3    15    16    1
     4    16    17    1
     5    17     1    1
     6     1     2   ar
     7     2     3   ar
     8     3     4   ar
     9     4     5   ar
    10     5     6   ar
    11     6     7    1
    12     6     8   ar
    13     8    20    1
    14    20    21    1
    15    21    22    1
    16    21    24    1
    17    24    25   ar
    18    25    26   ar
    19    26    27   ar
    20    27    31    1
    21    31    32    1
    22    31    33    1
    23    31    34    1
    24    27    28   ar
    25    28    29   ar
    26    29    30    1
    27     8     9   ar
    28     9    10   ar
    29    17    18    1
    30    18    19    1
    31    19    14    1
    32    10     1   ar
    33     9     4   ar
    34    29    24   ar
    35     7    11    1
    36     7    12    1
    37    22    23    1
@<TRIPOS>MOLECULE
*****
 34 37 0 0 0
SMALL
GASTEIGER

@<TRIPOS>ATOM
      1 C          65.9653   93.4079   12.5837 C.ar    1  UNL1        0.1335
      2 C          66.7295   93.5511   13.8665 C.ar    1  UNL1        0.0360
      3 C          66.3429   92.7360   15.0648 C.ar    1  UNL1        0.0251
      4 C          65.1921   91.7776   14.9804 C.ar    1  UNL1        0.1183
      5 N          64.5841   90.8480   15.9885 N.ar    1  UNL1       -0.2123
      6 C          63.4441   90.1302   15.3287 C.ar    1  UNL1        0.1959
      7 N          62.5565   89.1062   15.9719 N.pl3   1  UNL1       -0.3287
      8 N          63.3476   90.6163   13.9129 N.ar    1  UNL1       -0.2824
      9 C          64.4279   91.6344   13.6976 C.ar    1  UNL1        0.1651
     10 N          64.8145   92.4495   12.4993 N.ar    1  UNL1       -0.2120
     11 H          62.6995   88.8516   16.9120 H       1  UNL1        0.1451
     12 H          61.8308   88.6888   15.4538 H       1  UNL1        0.1451
     13 C          67.5115   96.6687    7.7903 C.3     1  UNL1        0.0897
     14 N          67.1250   95.8535    8.9886 N.3     1  UNL1       -0.2686
     15 C          67.3435   94.3695    8.9884 C.3     1  UNL1        0.0939
     16 C          66.9569   93.5543   10.1868 C.3     1  UNL1        0.1095
     17 N          66.3519   94.2231   11.3853 N.pl3   1  UNL1       -0.2903
     18 C          66.1334   95.7071   11.3856 C.3     1  UNL1        0.1095
     19 C          66.5199   96.5223   10.1873 C.3     1  UNL1        0.0939
     20 C          62.3465   90.1637   12.8917 C.3     1  UNL1        0.1438
     21 C          62.7979   89.3803   11.6948 C.3     1  UNL1        0.1561
     22 O          63.2722   90.0964   10.4651 O.3     1  UNL1       -0.3780
     23 H          63.5252   89.4472    9.7902 H       1  UNL1        0.2109
     24 C          62.7749   87.8808   11.7276 C.ar    1  UNL1        0.0167
     25 C          63.4130   87.1458   12.8689 C.ar    1  UNL1       -0.0011
     26 C          63.3900   85.6463   12.9017 C.ar    1  UNL1        0.0037
     27 C          62.7291   84.8819   11.7932 C.ar    1  UNL1        0.0722
     28 C          62.0911   85.6169   10.6519 C.ar    1  UNL1        0.0150
     29 C          62.1140   87.1164   10.6191 C.ar    1  UNL1        0.0559
     30 CL         61.4760   87.8515    9.4778 Cl      1  UNL1       -0.0825
     31 C          62.7062   83.3824   11.8260 C.3     1  UNL1        0.4186
     32 F          62.6833   81.8829   11.8588 F       1  UNL1       -0.1659
     33 F          63.2367   83.3436   10.4235 F       1  UNL1       -0.1659
     34 F          62.1757   83.4212   13.2285 F       1  UNL1       -0.1659
@<TRIPOS>BOND
     1    13    14    1
     2    14    15    1
     3    15    16    1
     4    16    17    1
     5    17     1    1
     6     1     2   ar
     7     2     3   ar
     8     3     4   ar
     9     4     5   ar
    10     5     6   ar
    11     6     7    1
    12     6     8   ar
    13     8    20    1
    14    20    21    1
    15    21    22    1
    16    21    24    1
    17    24    25   ar
    18    25    26   ar
    19    26    27   ar
    20    27    31    1
    21    31    32    1
    22    31    33    1
    23    31    34    1
    24    27    28   ar
    25    28    29   ar
    26    29    30    1
    27     8     9   ar
    28     9    10   ar
    29    17    18    1
    30    18    19    1
    31    19    14    1
    32    10     1   ar
    33     9     4   ar
    34    29    24   ar
    35     7    11    1
    36     7    12    1
    37    22    23    1
@<TRIPOS>MOLECULE
*****
 34 37 0 0 0
SMALL
GASTEIGER

@<TRIPOS>ATOM
      1 C          66.0605   93.5341   12.6875 C.ar    1  UNL1        0.1335
      2 C          66.6458   93.9020   14.0187 C.ar    1  UNL1        0.0360
      3 C          66.2571   93.1337   15.2469 C.ar    1  UNL1        0.0251
      4 C          65.2832   91.9975   15.1440 C.ar    1  UNL1        0.1183
      5 N          64.7159   91.0654   16.1733 N.ar    1  UNL1       -0.2123
      6 C          63.7799   90.1216   15.4782 C.ar    1  UNL1        0.1959
      7 N          62.9932   89.0220   16.1279 N.pl3   1  UNL1       -0.3287
      8 N          63.7689   90.4703   14.0193 N.ar    1  UNL1       -0.2824
      9 C          64.6979   91.6297   13.8128 C.ar    1  UNL1        0.1651
     10 N          65.0866   92.3980   12.5846 N.ar    1  UNL1       -0.2120
     11 H          63.0677   88.8702   17.0978 H       1  UNL1        0.1451
     12 H          62.4024   88.4521   15.5844 H       1  UNL1        0.1451
     13 C          67.6151   96.6074    7.7744 C.3     1  UNL1        0.0897
     14 N          67.2265   95.8391    9.0026 N.3     1  UNL1       -0.2686
     15 C          67.4032   94.3501    9.0431 C.3     1  UNL1        0.0939
     16 C          67.0146   93.5818   10.2714 C.3     1  UNL1        0.1095
     17 N          66.4492   94.3025   11.4592 N.pl3   1  UNL1       -0.2903
     18 C          66.2724   95.7915   11.4187 C.3     1  UNL1        0.1095
     19 C          66.6610   96.5598   10.1905 C.3     1  UNL1        0.0939
     20 C          62.9691   89.7807   12.9540 C.3     1  UNL1        0.1438
     21 C          63.1814   88.3206   12.6837 C.3     1  UNL1        0.1561
     22 O          64.0184   87.4988   13.6186 O.3     1  UNL1       -0.3780
     23 H          64.0537   86.5830   13.3008 H       1  UNL1        0.2109
     24 C          62.5568   87.6824   11.4786 C.ar    1  UNL1        0.0167
     25 C          62.0688   88.5361   10.3459 C.ar    1  UNL1       -0.0011
     26 C          61.4442   87.8979    9.1407 C.ar    1  UNL1        0.0037
     27 C          61.3075   86.4060    9.0681 C.ar    1  UNL1        0.0722
     28 C          61.7954   85.5522   10.2008 C.ar    1  UNL1        0.0150
     29 C          62.4201   86.1904   11.4060 C.ar    1  UNL1        0.0559
     30 CL         62.9081   85.3367   12.5387 Cl      1  UNL1       -0.0825
     31 C          60.6828   85.7677    7.8629 C.3     1  UNL1        0.4186
     32 F          60.0582   85.1295    6.6578 F       1  UNL1       -0.1659
     33 F          59.3404   86.2886    8.2829 F       1  UNL1       -0.1659
     34 F          62.0253   85.2468    7.4430 F       1  UNL1       -0.1659
@<TRIPOS>BOND
     1    13    14    1
     2    14    15    1
     3    15    16    1
     4    16    17    1
     5    17     1    1
     6     1     2   ar
     7     2     3   ar
     8     3     4   ar
     9     4     5   ar
    10     5     6   ar
    11     6     7    1
    12     6     8   ar
    13     8    20    1
    14    20    21    1
    15    21    22    1
    16    21    24    1
    17    24    25   ar
    18    25    26   ar
    19    26    27   ar
    20    27    31    1
    21    31    32    1
    22    31    33    1
    23    31    34    1
    24    27    28   ar
    25    28    29   ar
    26    29    30    1
    27     8     9   ar
    28     9    10   ar
    29    17    18    1
    30    18    19    1
    31    19    14    1
    32    10     1   ar
    33     9     4   ar
    34    29    24   ar
    35     7    11    1
    36     7    12    1
    37    22    23    1
@<TRIPOS>MOLECULE
*****
 34 37 0 0 0
SMALL
GASTEIGER

@<TRIPOS>ATOM
      1 C          61.7043   86.8324   10.5010 C.ar    1  UNL1        0.1335
      2 C          61.7215   85.3331   10.4592 C.ar    1  UNL1        0.0360
      3 C          62.4573   84.5618   11.5145 C.ar    1  UNL1        0.0251
      4 C          63.1758   85.2898   12.6116 C.ar    1  UNL1        0.1183
      5 N          63.9798   84.8026   13.7806 N.ar    1  UNL1       -0.2123
      6 C          64.4593   86.0009   14.5449 C.ar    1  UNL1        0.1959
      7 N          65.2990   85.9759   15.7877 N.pl3   1  UNL1       -0.3287
      8 N          63.9518   87.2286   13.8483 N.ar    1  UNL1       -0.2824
      9 C          63.1586   86.7891   12.6535 C.ar    1  UNL1        0.1651
     10 N          62.4228   87.5604   11.5982 N.ar    1  UNL1       -0.2120
     11 H          65.5844   85.1155   16.1717 H       1  UNL1        0.1451
     12 H          65.5647   86.8199   16.2193 H       1  UNL1        0.1451
     13 C          58.7611   89.9177    6.2798 C.3     1  UNL1        0.0897
     14 N          59.4969   89.1464    7.3350 N.3     1  UNL1       -0.2686
     15 C          60.2543   89.8748    8.4055 C.3     1  UNL1        0.0939
     16 C          60.9901   89.1035    9.4608 C.3     1  UNL1        0.1095
     17 N          60.9685   87.6037    9.4457 N.pl3   1  UNL1       -0.2903
     18 C          60.2111   86.8753    8.3753 C.3     1  UNL1        0.1095
     19 C          59.4754   87.6466    7.3200 C.3     1  UNL1        0.0939
     20 C          64.1949   88.6468   14.2721 C.3     1  UNL1        0.1438
     21 C          63.4345   89.7645   13.6222 C.3     1  UNL1        0.1561
     22 O          61.9370   89.7983   13.7014 O.3     1  UNL1       -0.3780
     23 H          61.6060   90.5807   13.2331 H       1  UNL1        0.2109
     24 C          64.1716   90.8485   12.8931 C.ar    1  UNL1        0.0167
     25 C          63.8772   91.1134   11.4463 C.ar    1  UNL1       -0.0011
     26 C          64.6143   92.1974   10.7171 C.ar    1  UNL1        0.0037
     27 C          65.6457   93.0166   11.4347 C.ar    1  UNL1        0.0722
     28 C          65.9401   92.7517   12.8815 C.ar    1  UNL1        0.0150
     29 C          65.2031   91.6677   13.6106 C.ar    1  UNL1        0.0559
     30 CL         65.4974   91.4028   15.0574 Cl      1  UNL1       -0.0825
     31 C          66.3828   94.1005   10.7056 C.3     1  UNL1        0.4186
     32 F          67.1199   95.1845    9.9764 F       1  UNL1       -0.1659
     33 F          66.0351   95.0703   11.7958 F       1  UNL1       -0.1659
     34 F          66.7306   93.1308    9.6153 F       1  UNL1       -0.1659
@<TRIPOS>BOND
     1    13    14    1
     2    14    15    1
     3    15    16    1
     4    16    17    1
     5    17     1    1
     6     1     2   ar
     7     2     3   ar
     8     3     4   ar
     9     4     5   ar
    10     5     6   ar
    11     6     7    1
    12     6     8   ar
    13     8    20    1
    14    20    21    1
    15    21    22    1
    16    21    24    1
    17    24    25   ar
    18    25    26   ar
    19    26    27   ar
    20    27    31    1
    21    31    32    1
    22    31    33    1
    23    31    34    1
    24    27    28   ar
    25    28    29   ar
    26    29    30    1
    27     8     9   ar
    28     9    10   ar
    29    17    18    1
    30    18    19    1
    31    19    14    1
    32    10     1   ar
    33     9     4   ar
    34    29    24   ar
    35     7    11    1
    36     7    12    1
    37    22    23    1
@<TRIPOS>MOLECULE
*****
 34 37 0 0 0
SMALL
GASTEIGER

@<TRIPOS>ATOM
      1 C          63.0268   84.9544   15.1530 C.ar    1  UNL1        0.1335
      2 C          62.5843   84.9277   16.5860 C.ar    1  UNL1        0.0360
      3 C          62.5945   86.1890   17.3977 C.ar    1  UNL1        0.0251
      4 C          63.0474   87.4770   16.7764 C.ar    1  UNL1        0.1183
      5 N          63.1649   88.8687   17.3239 N.ar    1  UNL1       -0.2123
      6 C          63.6801   89.7554   16.2293 C.ar    1  UNL1        0.1959
      7 N          63.9475   91.2273   16.3392 N.pl3   1  UNL1       -0.3287
      8 N          63.8810   88.9118   15.0053 N.ar    1  UNL1       -0.2824
      9 C          63.4899   87.5038   15.3435 C.ar    1  UNL1        0.1651
     10 N          63.4796   86.2424   14.5318 N.ar    1  UNL1       -0.2120
     11 H          63.7837   91.6952   17.1898 H       1  UNL1        0.1451
     12 H          64.2868   91.7255   15.5608 H       1  UNL1        0.1451
     13 C          62.9857   79.9091   11.9060 C.3     1  UNL1        0.0897
     14 N          62.9960   81.1704   12.7177 N.3     1  UNL1       -0.2686
     15 C          64.0156   82.2343   12.4375 C.3     1  UNL1        0.0939
     16 C          64.0258   83.4956   13.2493 C.3     1  UNL1        0.1095
     17 N          63.0165   83.6930   14.3412 N.pl3   1  UNL1       -0.2903
     18 C          61.9969   82.6291   14.6214 C.3     1  UNL1        0.1095
     19 C          61.9866   81.3678   13.8097 C.3     1  UNL1        0.0939
     20 C          64.3845   89.3920   13.6765 C.3     1  UNL1        0.1438
     21 C          63.6754   90.5051   12.9634 C.3     1  UNL1        0.1561
     22 O          62.1796   90.4922   12.8531 O.3     1  UNL1       -0.3780
     23 H          61.8845   91.2775   12.3662 H       1  UNL1        0.2109
     24 C          64.4623   91.6309   12.3606 C.ar    1  UNL1        0.0167
     25 C          65.4314   92.4046   13.2045 C.ar    1  UNL1       -0.0011
     26 C          66.2183   93.5305   12.6018 C.ar    1  UNL1        0.0037
     27 C          66.0360   93.8827   11.1552 C.ar    1  UNL1        0.0722
     28 C          65.0668   93.1090   10.3113 C.ar    1  UNL1        0.0150
     29 C          64.2800   91.9831   10.9141 C.ar    1  UNL1        0.0559
     30 CL         63.3108   91.2094   10.0702 Cl      1  UNL1       -0.0825
     31 C          66.8228   95.0086   10.5524 C.3     1  UNL1        0.4186
     32 F          67.6096   96.1344    9.9497 F       1  UNL1       -0.1659
     33 F          67.6389   94.0207    9.7726 F       1  UNL1       -0.1659
     34 F          66.0067   95.9964   11.3322 F       1  UNL1       -0.1659
@<TRIPOS>BOND
     1    13    14    1
     2    14    15    1
     3    15    16    1
     4    16    17    1
     5    17     1    1
     6     1     2   ar
     7     2     3   ar
     8     3     4   ar
     9     4     5   ar
    10     5     6   ar
    11     6     7    1
    12     6     8   ar
    13     8    20    1
    14    20    21    1
    15    21    22    1
    16    21    24    1
    17    24    25   ar
    18    25    26   ar
    19    26    27   ar
    20    27    31    1
    21    31    32    1
    22    31    33    1
    23    31    34    1
    24    27    28   ar
    25    28    29   ar
    26    29    30    1
    27     8     9   ar
    28     9    10   ar
    29    17    18    1
    30    18    19    1
    31    19    14    1
    32    10     1   ar
    33     9     4   ar
    34    29    24   ar
    35     7    11    1
    36     7    12    1
    37    22    23    1
@<TRIPOS>MOLECULE
*****
 34 37 0 0 0
SMALL
GASTEIGER

@<TRIPOS>ATOM
      1 C          63.0621   90.3087   10.8431 C.ar    1  UNL1        0.1335
      2 C          63.5293   91.5511   10.1445 C.ar    1  UNL1        0.0360
      3 C          64.4643   92.4957   10.8396 C.ar    1  UNL1        0.0251
      4 C          64.9322   92.1980   12.2333 C.ar    1  UNL1        0.1183
      5 N          65.8470   92.9372   13.1644 N.ar    1  UNL1       -0.2123
      6 C          65.9451   92.1516   14.4384 C.ar    1  UNL1        0.1959
      7 N          66.7551   92.5251   15.6444 N.pl3   1  UNL1       -0.3287
      8 N          65.0910   90.9269   14.2947 N.ar    1  UNL1       -0.2824
      9 C          64.4650   90.9556   12.9319 C.ar    1  UNL1        0.1651
     10 N          63.5300   90.0109   12.2368 N.ar    1  UNL1       -0.2120
     11 H          67.2865   93.3539   15.6431 H       1  UNL1        0.1451
     12 H          66.7554   91.9414   16.4373 H       1  UNL1        0.1451
     13 C          59.3218   86.5297    8.0627 C.3     1  UNL1        0.0897
     14 N          60.2569   87.4744    8.7577 N.3     1  UNL1       -0.2686
     15 C          59.9617   88.9450    8.7746 C.3     1  UNL1        0.0939
     16 C          60.8968   89.8898    9.4697 C.3     1  UNL1        0.1095
     17 N          62.1270   89.3639   10.1479 N.pl3   1  UNL1       -0.2903
     18 C          62.4222   87.8933   10.1311 C.3     1  UNL1        0.1095
     19 C          61.4871   86.9486    9.4361 C.3     1  UNL1        0.0939
     20 C          64.8970   89.8606   15.3318 C.3     1  UNL1        0.1438
     21 C          63.6168   89.0800   15.3744 C.3     1  UNL1        0.1561
     22 O          62.3160   89.7855   15.6194 O.3     1  UNL1       -0.3780
     23 H          61.5923   89.1396   15.6160 H       1  UNL1        0.2109
     24 C          63.6376   87.5938   15.1722 C.ar    1  UNL1        0.0167
     25 C          63.9722   87.0248   13.8252 C.ar    1  UNL1       -0.0011
     26 C          63.9929   85.5387   13.6230 C.ar    1  UNL1        0.0037
     27 C          63.6790   84.6215   14.7676 C.ar    1  UNL1        0.0722
     28 C          63.3444   85.1905   16.1145 C.ar    1  UNL1        0.0150
     29 C          63.3237   86.6766   16.3168 C.ar    1  UNL1        0.0559
     30 CL         62.9891   87.2457   17.6637 Cl      1  UNL1       -0.0825
     31 C          63.6997   83.1353   14.5653 C.3     1  UNL1        0.4186
     32 F          63.7205   81.6492   14.3631 F       1  UNL1       -0.1659
     33 F          62.5157   82.9950   15.4754 F       1  UNL1       -0.1659
     34 F          64.8838   83.2757   13.6553 F       1  UNL1       -0.1659
@<TRIPOS>BOND
     1    13    14    1
     2    14    15    1
     3    15    16    1
     4    16    17    1
     5    17     1    1
     6     1     2   ar
     7     2     3   ar
     8     3     4   ar
     9     4     5   ar
    10     5     6   ar
    11     6     7    1
    12     6     8   ar
    13     8    20    1
    14    20    21    1
    15    21    22    1
    16    21    24    1
    17    24    25   ar
    18    25    26   ar
    19    26    27   ar
    20    27    31    1
    21    31    32    1
    22    31    33    1
    23    31    34    1
    24    27    28   ar
    25    28    29   ar
    26    29    30    1
    27     8     9   ar
    28     9    10   ar
    29    17    18    1
    30    18    19    1
    31    19    14    1
    32    10     1   ar
    33     9     4   ar
    34    29    24   ar
    35     7    11    1
    36     7    12    1
    37    22    23    1
