@<TRIPOS>MOLECULE
*****
 41 43 0 0 0
SMALL
GASTEIGER

@<TRIPOS>ATOM
      1 C          61.8652   86.1512    9.8803 C.3     1  UNL1        0.0920
      2 C          60.7519   85.9935    8.8875 C.3     1  UNL1        0.2582
      3 S          59.7777   87.1129    8.6689 S.O     1  UNL1        0.0319
      4 O          58.6644   86.9552    7.6762 O.co2   1  UNL1       -0.6812
      5 C          59.9169   88.3901    9.4432 C.3     1  UNL1        0.2736
      6 C          61.0302   88.5479   10.4359 C.3     1  UNL1        0.1416
      7 C          62.0044   87.4284   10.6545 C.3     1  UNL1        0.1353
      8 O          63.1177   87.5862   11.6474 O.3     1  UNL1       -0.3827
      9 H          63.0637   88.4638   12.0569 H       1  UNL1        0.2104
     10 N          61.1693   89.8251   11.2102 N.3     1  UNL1       -0.2887
     11 H          61.5391   89.5747   12.1273 H       1  UNL1        0.1237
     12 C          62.0334   90.9318   10.6823 C.3     1  UNL1        0.0958
     13 C          63.3155   91.2795   11.3788 C.ar    1  UNL1       -0.0067
     14 C          63.5144   90.9015   12.8167 C.ar    1  UNL1       -0.0029
     15 C          64.7965   91.2492   13.5132 C.ar    1  UNL1       -0.0006
     16 C          65.8799   91.9750   12.7717 C.ar    1  UNL1       -0.0043
     17 C          65.6810   92.3530   11.3338 C.ar    1  UNL1       -0.0228
     18 C          64.3988   92.0052   10.6374 C.ar    1  UNL1       -0.0072
     19 C          66.7643   93.0787   10.5924 C.3     1  UNL1        0.0223
     20 C          67.9025   92.3117    9.9874 C.3     1  UNL1        0.0047
     21 C          66.7094   94.5715   10.4560 C.3     1  UNL1        0.0047
     22 C          62.8394   85.0318   10.0989 C.3     1  UNL1        0.0342
     23 C          62.3979   83.8794   13.8708 C.ar    1  UNL1        0.1535
     24 C          62.5267   84.7606   12.6638 C.ar    1  UNL1        0.0341
     25 C          62.7107   84.1505   11.3059 C.ar    1  UNL1       -0.0166
     26 C          62.7660   82.6591   11.1550 C.ar    1  UNL1        0.0268
     27 C          62.6373   81.7779   12.3620 C.ar    1  UNL1        0.1556
     28 F          62.6927   80.2865   12.2111 F       1  UNL1       -0.2028
     29 C          62.4533   82.3880   13.7199 C.ar    1  UNL1        0.1037
     30 N          62.3245   81.5067   14.9269 N.pl3   1  UNL1       -0.3529
     31 H          62.3609   80.5279   14.8278 H       1  UNL1        0.1425
     32 H          62.2037   81.9071   15.8181 H       1  UNL1        0.1425
     33 O          62.2139   84.4895   15.2287 O.3     1  UNL1       -0.4665
     34 C          63.3185   85.2959   15.8446 C.3     1  UNL1        0.2891
     35 C          64.6888   85.2800   15.2344 C.3     1  UNL1        0.4366
     36 F          66.0589   85.2641   14.6243 F       1  UNL1       -0.1663
     37 F          64.5411   86.7262   14.8649 F       1  UNL1       -0.1663
     38 F          64.8365   83.8338   15.6039 F       1  UNL1       -0.1663
     39 C          63.0530   86.1183   17.0706 C.3     1  UNL1        0.1945
     40 C          63.0783   88.7143   16.9686 C.3     1  UNL1        0.1743
     41 O          62.3184   87.4211   16.9552 O.3     1  UNL1       -0.3469
@<TRIPOS>UNITY_ATOM_ATTR
3 1
charge 1
4 1
charge -1
@<TRIPOS>BOND
     1    40    41    1
     2    41    39    1
     3    34    39    1
     4    34    33    1
     5    33    23    1
     6    23    24   ar
     7    24    25   ar
     8    25    22    1
     9     1    22    1
    10     1     2    1
    11     2     3    1
    12     3     4    2
    13     3     5    1
    14     5     6    1
    15     6    10    1
    16    10    12    1
    17    12    13    1
    18    13    14   ar
    19    14    15   ar
    20    15    16   ar
    21    16    17   ar
    22    17    19    1
    23    19    20    1
    24    19    21    1
    25    17    18   ar
    26     6     7    1
    27     7     8    1
    28    25    26   ar
    29    26    27   ar
    30    27    28    1
    31    27    29   ar
    32    29    30    1
    33    34    35    1
    34    35    36    1
    35    35    37    1
    36    35    38    1
    37    29    23   ar
    38     7     1    1
    39    18    13   ar
    40    10    11    1
    41     8     9    1
    42    30    31    1
    43    30    32    1
@<TRIPOS>MOLECULE
*****
 41 43 0 0 0
SMALL
GASTEIGER

@<TRIPOS>ATOM
      1 C          63.8327   90.9981   13.3624 C.3     1  UNL1        0.0920
      2 C          64.9652   91.7685   12.7509 C.3     1  UNL1        0.2582
      3 S          64.9534   92.0819   11.2841 S.O     1  UNL1        0.0319
      4 O          66.0859   92.8522   10.6726 O.co2   1  UNL1       -0.6812
      5 C          63.8090   91.6249   10.4287 C.3     1  UNL1        0.2736
      6 C          62.6765   90.8545   11.0402 C.3     1  UNL1        0.1416
      7 C          62.6883   90.5411   12.5071 C.3     1  UNL1        0.1353
      8 O          61.5558   89.7707   13.1185 O.3     1  UNL1       -0.3827
      9 H          60.9047   89.5541   12.4329 H       1  UNL1        0.2104
     10 N          61.5321   90.3975   10.1848 N.3     1  UNL1       -0.2887
     11 H          61.9074   90.2424    9.2492 H       1  UNL1        0.1237
     12 C          60.7663   89.1618   10.5545 C.3     1  UNL1        0.0958
     13 C          60.5295   88.0917    9.5304 C.ar    1  UNL1       -0.0067
     14 C          59.2038   87.9996    8.8346 C.ar    1  UNL1       -0.0029
     15 C          58.9671   86.9295    7.8105 C.ar    1  UNL1       -0.0006
     16 C          60.0561   85.9515    7.4821 C.ar    1  UNL1       -0.0043
     17 C          61.3817   86.0437    8.1779 C.ar    1  UNL1       -0.0228
     18 C          61.6185   87.1138    9.2020 C.ar    1  UNL1       -0.0072
     19 C          62.4707   85.0658    7.8495 C.3     1  UNL1        0.0223
     20 C          62.6047   84.5334    6.4536 C.3     1  UNL1        0.0047
     21 C          63.4256   84.6202    8.9171 C.3     1  UNL1        0.0047
     22 C          63.8445   90.6847   14.8293 C.3     1  UNL1        0.0342
     23 C          64.3252   86.7458   14.8974 C.ar    1  UNL1        0.1535
     24 C          64.3739   88.1718   14.4348 C.ar    1  UNL1        0.0341
     25 C          63.7957   89.2586   15.2919 C.ar    1  UNL1       -0.0166
     26 C          63.1688   88.9193   16.6117 C.ar    1  UNL1        0.0268
     27 C          63.1200   87.4932   17.0742 C.ar    1  UNL1        0.1556
     28 F          62.4931   87.1539   18.3940 F       1  UNL1       -0.2028
     29 C          63.6982   86.4065   16.2171 C.ar    1  UNL1        0.1037
     30 N          63.6495   84.9804   16.6797 N.pl3   1  UNL1       -0.3529
     31 H          63.2380   84.7577   17.5460 H       1  UNL1        0.1425
     32 H          64.0290   84.2672   16.1172 H       1  UNL1        0.1425
     33 O          64.9034   85.6591   14.0402 O.3     1  UNL1       -0.4665
     34 C          63.9952   84.6853   13.3497 C.3     1  UNL1        0.2891
     35 C          62.7138   85.1624   12.7330 C.3     1  UNL1        0.4366
     36 F          61.4323   85.6395   12.1163 F       1  UNL1       -0.1663
     37 F          63.4857   86.1054   11.8584 F       1  UNL1       -0.1663
     38 F          61.9418   84.2195   13.6075 F       1  UNL1       -0.1663
     39 C          64.3684   83.2344   13.2758 C.3     1  UNL1        0.1945
     40 C          63.0653   81.6083   11.7241 C.3     1  UNL1        0.1743
     41 O          64.2490   82.4944   11.9765 O.3     1  UNL1       -0.3469
@<TRIPOS>UNITY_ATOM_ATTR
3 1
charge 1
4 1
charge -1
@<TRIPOS>BOND
     1    40    41    1
     2    41    39    1
     3    34    39    1
     4    34    33    1
     5    33    23    1
     6    23    24   ar
     7    24    25   ar
     8    25    22    1
     9     1    22    1
    10     1     2    1
    11     2     3    1
    12     3     4    2
    13     3     5    1
    14     5     6    1
    15     6    10    1
    16    10    12    1
    17    12    13    1
    18    13    14   ar
    19    14    15   ar
    20    15    16   ar
    21    16    17   ar
    22    17    19    1
    23    19    20    1
    24    19    21    1
    25    17    18   ar
    26     6     7    1
    27     7     8    1
    28    25    26   ar
    29    26    27   ar
    30    27    28    1
    31    27    29   ar
    32    29    30    1
    33    34    35    1
    34    35    36    1
    35    35    37    1
    36    35    38    1
    37    29    23   ar
    38     7     1    1
    39    18    13   ar
    40    10    11    1
    41     8     9    1
    42    30    31    1
    43    30    32    1
@<TRIPOS>MOLECULE
*****
 41 43 0 0 0
SMALL
GASTEIGER

@<TRIPOS>ATOM
      1 C          61.3972   89.3517   10.6890 C.3     1  UNL1        0.0920
      2 C          60.3928   89.5585    9.5942 C.3     1  UNL1        0.2582
      3 S          60.1271   88.4639    8.6037 S.O     1  UNL1        0.0319
      4 O          59.1227   88.6707    7.5089 O.co2   1  UNL1       -0.6812
      5 C          60.8657   87.1625    8.7079 C.3     1  UNL1        0.2736
      6 C          61.8701   86.9558    9.8026 C.3     1  UNL1        0.1416
      7 C          62.1358   88.0503   10.7932 C.3     1  UNL1        0.1353
      8 O          63.1402   87.8435   11.8880 O.3     1  UNL1       -0.3827
      9 H          63.5232   86.9556   11.8119 H       1  UNL1        0.2104
     10 N          62.6087   85.6543    9.9068 N.3     1  UNL1       -0.2887
     11 H          63.5277   85.8676   10.2947 H       1  UNL1        0.1237
     12 C          62.0418   84.5338   10.7272 C.3     1  UNL1        0.0958
     13 C          62.6859   84.1566   12.0283 C.ar    1  UNL1       -0.0067
     14 C          63.0269   82.7230   12.3085 C.ar    1  UNL1       -0.0029
     15 C          63.6710   82.3457   13.6096 C.ar    1  UNL1       -0.0006
     16 C          63.9739   83.4021   14.6305 C.ar    1  UNL1       -0.0043
     17 C          63.6329   84.8357   14.3504 C.ar    1  UNL1       -0.0228
     18 C          62.9888   85.2129   13.0492 C.ar    1  UNL1       -0.0072
     19 C          63.9358   85.8921   15.3713 C.3     1  UNL1        0.0223
     20 C          63.4723   85.7211   16.7875 C.3     1  UNL1        0.0047
     21 C          64.7023   87.1193   14.9759 C.3     1  UNL1        0.0047
     22 C          61.6630   90.4463   11.6796 C.3     1  UNL1        0.0342
     23 C          65.1787   91.3044   13.3085 C.ar    1  UNL1        0.1535
     24 C          63.7884   90.7677   13.1389 C.ar    1  UNL1        0.0341
     25 C          63.0534   90.9831   11.8492 C.ar    1  UNL1       -0.0166
     26 C          63.7088   91.7352   10.7290 C.ar    1  UNL1        0.0268
     27 C          65.0991   92.2719   10.8986 C.ar    1  UNL1        0.1556
     28 F          65.7546   93.0240    9.7784 F       1  UNL1       -0.2028
     29 C          65.8341   92.0565   12.1883 C.ar    1  UNL1        0.1037
     30 N          67.2245   92.5933   12.3579 N.pl3   1  UNL1       -0.3529
     31 H          67.6547   93.0869   11.6227 H       1  UNL1        0.1425
     32 H          67.7069   92.4519   13.2044 H       1  UNL1        0.1425
     33 O          65.9137   91.0891   14.5982 O.3     1  UNL1       -0.4665
     34 C          65.9407   92.1718   15.6359 C.3     1  UNL1        0.2891
     35 C          67.1060   93.1138   15.7068 C.3     1  UNL1        0.4366
     36 F          68.2712   94.0557   15.7776 F       1  UNL1       -0.1663
     37 F          67.7985   92.1855   16.6599 F       1  UNL1       -0.1663
     38 F          66.4135   94.0421   14.7536 F       1  UNL1       -0.1663
     39 C          64.8026   92.3128   16.6027 C.3     1  UNL1        0.1945
     40 C          63.3794   90.1395   16.6445 C.3     1  UNL1        0.1743
     41 O          63.5064   91.6036   16.3437 O.3     1  UNL1       -0.3469
@<TRIPOS>UNITY_ATOM_ATTR
3 1
charge 1
4 1
charge -1
@<TRIPOS>BOND
     1    40    41    1
     2    41    39    1
     3    34    39    1
     4    34    33    1
     5    33    23    1
     6    23    24   ar
     7    24    25   ar
     8    25    22    1
     9     1    22    1
    10     1     2    1
    11     2     3    1
    12     3     4    2
    13     3     5    1
    14     5     6    1
    15     6    10    1
    16    10    12    1
    17    12    13    1
    18    13    14   ar
    19    14    15   ar
    20    15    16   ar
    21    16    17   ar
    22    17    19    1
    23    19    20    1
    24    19    21    1
    25    17    18   ar
    26     6     7    1
    27     7     8    1
    28    25    26   ar
    29    26    27   ar
    30    27    28    1
    31    27    29   ar
    32    29    30    1
    33    34    35    1
    34    35    36    1
    35    35    37    1
    36    35    38    1
    37    29    23   ar
    38     7     1    1
    39    18    13   ar
    40    10    11    1
    41     8     9    1
    42    30    31    1
    43    30    32    1
@<TRIPOS>MOLECULE
*****
 41 43 0 0 0
SMALL
GASTEIGER

@<TRIPOS>ATOM
      1 C          61.8692   90.0851   10.5158 C.3     1  UNL1        0.0920
      2 C          60.7133   90.5651   11.3426 C.3     1  UNL1        0.2582
      3 S          59.6158   89.6149   11.7204 S.O     1  UNL1        0.0319
      4 O          58.4599   90.0948   12.5472 O.co2   1  UNL1       -0.6812
      5 C          59.6742   88.1849   11.2714 C.3     1  UNL1        0.2736
      6 C          60.8300   87.7050   10.4446 C.3     1  UNL1        0.1416
      7 C          61.9276   88.6551   10.0668 C.3     1  UNL1        0.1353
      8 O          63.0835   88.1751    9.2400 O.3     1  UNL1       -0.3827
      9 H          62.9668   87.2339    9.0367 H       1  UNL1        0.2104
     10 N          60.8884   86.2749    9.9955 N.3     1  UNL1       -0.2887
     11 H          60.2768   86.1962    9.1830 H       1  UNL1        0.1237
     12 C          62.2024   85.6631    9.6093 C.3     1  UNL1        0.0958
     13 C          62.9215   84.7627   10.5695 C.ar    1  UNL1       -0.0067
     14 C          63.7007   83.5882   10.0562 C.ar    1  UNL1       -0.0029
     15 C          64.4198   82.6877   11.0164 C.ar    1  UNL1       -0.0006
     16 C          64.3598   82.9618   12.4900 C.ar    1  UNL1       -0.0043
     17 C          63.5806   84.1362   13.0033 C.ar    1  UNL1       -0.0228
     18 C          62.8615   85.0367   12.0430 C.ar    1  UNL1       -0.0072
     19 C          63.5206   84.4103   14.4768 C.3     1  UNL1        0.0223
     20 C          62.7098   83.5213   15.3725 C.3     1  UNL1        0.0047
     21 C          64.2713   85.5733   15.0546 C.3     1  UNL1        0.0047
     22 C          62.9668   91.0352   10.1380 C.3     1  UNL1        0.0342
     23 C          66.1306   92.7725   11.7879 C.ar    1  UNL1        0.1535
     24 C          65.1047   92.3690   10.7708 C.ar    1  UNL1        0.0341
     25 C          63.9927   91.4386   11.1553 C.ar    1  UNL1       -0.0166
     26 C          63.9066   90.9117   12.5570 C.ar    1  UNL1        0.0268
     27 C          64.9325   91.3152   13.5742 C.ar    1  UNL1        0.1556
     28 F          64.8464   90.7883   14.9760 F       1  UNL1       -0.2028
     29 C          66.0445   92.2456   13.1897 C.ar    1  UNL1        0.1037
     30 N          67.0704   92.6490   14.2070 N.pl3   1  UNL1       -0.3529
     31 H          67.0139   92.3032   15.1270 H       1  UNL1        0.1425
     32 H          67.8002   93.2596   13.9546 H       1  UNL1        0.1425
     33 O          67.2426   93.7028   11.4034 O.3     1  UNL1       -0.4665
     34 C          67.5086   93.9960    9.9566 C.3     1  UNL1        0.2891
     35 C          68.2547   93.0034    9.1150 C.3     1  UNL1        0.4366
     36 F          69.0006   92.0109    8.2734 F       1  UNL1       -0.1663
     37 F          68.6230   92.2341   10.3489 F       1  UNL1       -0.1663
     38 F          67.8863   93.7728    7.8812 F       1  UNL1       -0.1663
     39 C          67.0287   95.2819    9.3514 C.3     1  UNL1        0.1945
     40 C          65.4463   96.8533   10.6843 C.3     1  UNL1        0.1743
     41 O          66.8247   96.4888   10.2185 O.3     1  UNL1       -0.3469
@<TRIPOS>UNITY_ATOM_ATTR
3 1
charge 1
4 1
charge -1
@<TRIPOS>BOND
     1    40    41    1
     2    41    39    1
     3    34    39    1
     4    34    33    1
     5    33    23    1
     6    23    24   ar
     7    24    25   ar
     8    25    22    1
     9     1    22    1
    10     1     2    1
    11     2     3    1
    12     3     4    2
    13     3     5    1
    14     5     6    1
    15     6    10    1
    16    10    12    1
    17    12    13    1
    18    13    14   ar
    19    14    15   ar
    20    15    16   ar
    21    16    17   ar
    22    17    19    1
    23    19    20    1
    24    19    21    1
    25    17    18   ar
    26     6     7    1
    27     7     8    1
    28    25    26   ar
    29    26    27   ar
    30    27    28    1
    31    27    29   ar
    32    29    30    1
    33    34    35    1
    34    35    36    1
    35    35    37    1
    36    35    38    1
    37    29    23   ar
    38     7     1    1
    39    18    13   ar
    40    10    11    1
    41     8     9    1
    42    30    31    1
    43    30    32    1
@<TRIPOS>MOLECULE
*****
 41 43 0 0 0
SMALL
GASTEIGER

@<TRIPOS>ATOM
      1 C          61.2395   89.5941   10.6445 C.3     1  UNL1        0.0920
      2 C          60.5109   89.8832    9.3656 C.3     1  UNL1        0.2582
      3 S          60.1692   88.7636    8.4276 S.O     1  UNL1        0.0319
      4 O          59.4407   89.0525    7.1487 O.co2   1  UNL1       -0.6812
      5 C          60.5561   87.3550    8.7686 C.3     1  UNL1        0.2736
      6 C          61.2847   87.0660   10.0475 C.3     1  UNL1        0.1416
      7 C          61.6264   88.1856   10.9855 C.3     1  UNL1        0.1353
      8 O          62.3549   87.8965   12.2645 O.3     1  UNL1       -0.3827
      9 H          62.5279   86.9443   12.3300 H       1  UNL1        0.2104
     10 N          61.6716   85.6574   10.3885 N.3     1  UNL1       -0.2887
     11 H          61.6177   85.1196    9.5235 H       1  UNL1        0.1237
     12 C          63.0153   85.3738   10.9917 C.3     1  UNL1        0.0958
     13 C          63.1220   84.5091   12.2127 C.ar    1  UNL1       -0.0067
     14 C          63.8821   84.9943   13.4114 C.ar    1  UNL1       -0.0029
     15 C          63.9887   84.1296   14.6324 C.ar    1  UNL1       -0.0006
     16 C          63.3352   82.7796   14.6547 C.ar    1  UNL1       -0.0043
     17 C          62.5751   82.2944   13.4561 C.ar    1  UNL1       -0.0228
     18 C          62.4685   83.1592   12.2350 C.ar    1  UNL1       -0.0072
     19 C          61.9217   80.9444   13.4784 C.3     1  UNL1        0.0223
     20 C          60.5875   80.7679   14.1408 C.3     1  UNL1        0.0047
     21 C          62.6024   79.7709   12.8384 C.3     1  UNL1        0.0047
     22 C          61.5812   90.7137   11.5825 C.3     1  UNL1        0.0342
     23 C          65.1460   91.3038   13.2238 C.ar    1  UNL1        0.1535
     24 C          63.7178   90.8793   13.0515 C.ar    1  UNL1        0.0341
     25 C          63.0096   91.1383   11.7548 C.ar    1  UNL1       -0.0166
     26 C          63.7297   91.8217   10.6304 C.ar    1  UNL1        0.0268
     27 C          65.1580   92.2462   10.8028 C.ar    1  UNL1        0.1556
     28 F          65.8782   92.9297    9.6783 F       1  UNL1       -0.2028
     29 C          65.8662   91.9873   12.0995 C.ar    1  UNL1        0.1037
     30 N          67.2945   92.4118   12.2718 N.pl3   1  UNL1       -0.3529
     31 H          67.7672   92.8604   11.5338 H       1  UNL1        0.1425
     32 H          67.7593   92.2419   13.1228 H       1  UNL1        0.1425
     33 O          65.8542   91.0449   14.5206 O.3     1  UNL1       -0.4665
     34 C          65.9100   92.1140   15.5711 C.3     1  UNL1        0.2891
     35 C          67.0878   93.0407   15.6363 C.3     1  UNL1        0.4366
     36 F          68.2656   93.9673   15.7016 F       1  UNL1       -0.1663
     37 F          66.3870   93.9962   14.7166 F       1  UNL1       -0.1663
     38 F          67.7886   92.0853   16.5560 F       1  UNL1       -0.1663
     39 C          64.7882   92.2566   16.5566 C.3     1  UNL1        0.1945
     40 C          63.4024   90.0589   16.5638 C.3     1  UNL1        0.1743
     41 O          63.4920   91.5373   16.3266 O.3     1  UNL1       -0.3469
@<TRIPOS>UNITY_ATOM_ATTR
3 1
charge 1
4 1
charge -1
@<TRIPOS>BOND
     1    40    41    1
     2    41    39    1
     3    34    39    1
     4    34    33    1
     5    33    23    1
     6    23    24   ar
     7    24    25   ar
     8    25    22    1
     9     1    22    1
    10     1     2    1
    11     2     3    1
    12     3     4    2
    13     3     5    1
    14     5     6    1
    15     6    10    1
    16    10    12    1
    17    12    13    1
    18    13    14   ar
    19    14    15   ar
    20    15    16   ar
    21    16    17   ar
    22    17    19    1
    23    19    20    1
    24    19    21    1
    25    17    18   ar
    26     6     7    1
    27     7     8    1
    28    25    26   ar
    29    26    27   ar
    30    27    28    1
    31    27    29   ar
    32    29    30    1
    33    34    35    1
    34    35    36    1
    35    35    37    1
    36    35    38    1
    37    29    23   ar
    38     7     1    1
    39    18    13   ar
    40    10    11    1
    41     8     9    1
    42    30    31    1
    43    30    32    1
@<TRIPOS>MOLECULE
*****
 41 43 0 0 0
SMALL
GASTEIGER

@<TRIPOS>ATOM
      1 C          63.3882   88.7982   15.4322 C.3     1  UNL1        0.0920
      2 C          62.9814   88.6325   16.8665 C.3     1  UNL1        0.2582
      3 S          62.9902   87.2710   17.4960 S.O     1  UNL1        0.0319
      4 O          62.5834   87.1051   18.9302 O.co2   1  UNL1       -0.6812
      5 C          63.4058   86.0752   16.6912 C.3     1  UNL1        0.2736
      6 C          63.8125   86.2411   15.2570 C.3     1  UNL1        0.1416
      7 C          63.8037   87.6026   14.6275 C.3     1  UNL1        0.1353
      8 O          64.2105   87.7683   13.1932 O.3     1  UNL1       -0.3827
      9 H          64.4476   86.9039   12.8224 H       1  UNL1        0.2104
     10 N          64.2281   85.0453   14.4522 N.3     1  UNL1       -0.2887
     11 H          64.6507   84.3842   15.1038 H       1  UNL1        0.1237
     12 C          63.2073   84.2818   13.6616 C.3     1  UNL1        0.0958
     13 C          63.2058   84.3611   12.1638 C.ar    1  UNL1       -0.0067
     14 C          63.9923   83.3689   11.3594 C.ar    1  UNL1       -0.0029
     15 C          63.9909   83.4483    9.8615 C.ar    1  UNL1       -0.0006
     16 C          63.2029   84.5198    9.1679 C.ar    1  UNL1       -0.0043
     17 C          62.4164   85.5120    9.9723 C.ar    1  UNL1       -0.0228
     18 C          62.4179   85.4326   11.4703 C.ar    1  UNL1       -0.0072
     19 C          61.6285   86.5835    9.2788 C.3     1  UNL1        0.0223
     20 C          61.7957   88.0182    9.6835 C.3     1  UNL1        0.0047
     21 C          60.6733   86.2204    8.1808 C.3     1  UNL1        0.0047
     22 C          63.3794   90.1597   14.8027 C.3     1  UNL1        0.0342
     23 C          66.6571   91.8539   13.3410 C.ar    1  UNL1        0.1535
     24 C          65.3890   91.0568   13.4219 C.ar    1  UNL1        0.0341
     25 C          64.6476   90.9569   14.7219 C.ar    1  UNL1       -0.0166
     26 C          65.1742   91.6540   15.9412 C.ar    1  UNL1        0.0268
     27 C          66.4423   92.4510   15.8604 C.ar    1  UNL1        0.1556
     28 F          66.9690   93.1482   17.0797 F       1  UNL1       -0.2028
     29 C          67.1837   92.5510   14.5603 C.ar    1  UNL1        0.1037
     30 N          68.4519   93.3482   14.4795 N.pl3   1  UNL1       -0.3529
     31 H          68.7975   93.8057   15.2798 H       1  UNL1        0.1425
     32 H          68.9385   93.4138   13.6263 H       1  UNL1        0.1425
     33 O          67.3986   91.9539   12.0409 O.3     1  UNL1       -0.4665
     34 C          66.9545   92.9361   10.9979 C.3     1  UNL1        0.2891
     35 C          67.6086   92.9437    9.6480 C.3     1  UNL1        0.4366
     36 F          68.2627   92.9513    8.2982 F       1  UNL1       -0.1663
     37 F          66.5761   93.9128    9.1531 F       1  UNL1       -0.1663
     38 F          68.6411   91.9747   10.1429 F       1  UNL1       -0.1663
     39 C          65.8563   93.9108   11.3047 C.3     1  UNL1        0.1945
     40 C          66.1312   96.4918   11.1911 C.3     1  UNL1        0.1743
     41 O          66.1758   95.2139   11.9753 O.3     1  UNL1       -0.3469
@<TRIPOS>UNITY_ATOM_ATTR
3 1
charge 1
4 1
charge -1
@<TRIPOS>BOND
     1    40    41    1
     2    41    39    1
     3    34    39    1
     4    34    33    1
     5    33    23    1
     6    23    24   ar
     7    24    25   ar
     8    25    22    1
     9     1    22    1
    10     1     2    1
    11     2     3    1
    12     3     4    2
    13     3     5    1
    14     5     6    1
    15     6    10    1
    16    10    12    1
    17    12    13    1
    18    13    14   ar
    19    14    15   ar
    20    15    16   ar
    21    16    17   ar
    22    17    19    1
    23    19    20    1
    24    19    21    1
    25    17    18   ar
    26     6     7    1
    27     7     8    1
    28    25    26   ar
    29    26    27   ar
    30    27    28    1
    31    27    29   ar
    32    29    30    1
    33    34    35    1
    34    35    36    1
    35    35    37    1
    36    35    38    1
    37    29    23   ar
    38     7     1    1
    39    18    13   ar
    40    10    11    1
    41     8     9    1
    42    30    31    1
    43    30    32    1
@<TRIPOS>MOLECULE
*****
 41 43 0 0 0
SMALL
GASTEIGER

@<TRIPOS>ATOM
      1 C          61.8176   86.2377    9.9045 C.3     1  UNL1        0.0920
      2 C          60.7538   86.1053    8.8553 C.3     1  UNL1        0.2582
      3 S          59.7764   87.2213    8.6332 S.O     1  UNL1        0.0319
      4 O          58.7127   87.0889    7.5840 O.co2   1  UNL1       -0.6812
      5 C          59.8628   88.4696    9.4604 C.3     1  UNL1        0.2736
      6 C          60.9266   88.6020   10.5096 C.3     1  UNL1        0.1416
      7 C          61.9039   87.4860   10.7317 C.3     1  UNL1        0.1353
      8 O          62.9677   87.6184   11.7810 O.3     1  UNL1       -0.3827
      9 H          62.8834   88.4791   12.2201 H       1  UNL1        0.2104
     10 N          61.0130   89.8503   11.3368 N.3     1  UNL1       -0.2887
     11 H          60.9499   89.5616   12.3131 H       1  UNL1        0.1237
     12 C          62.2140   90.7420   11.2257 C.3     1  UNL1        0.0958
     13 C          63.1920   90.8278   12.3598 C.ar    1  UNL1       -0.0067
     14 C          62.9438   90.0594   13.6239 C.ar    1  UNL1       -0.0029
     15 C          63.9217   90.1452   14.7580 C.ar    1  UNL1       -0.0006
     16 C          65.1480   90.9993   14.6280 C.ar    1  UNL1       -0.0043
     17 C          65.3962   91.7676   13.3638 C.ar    1  UNL1       -0.0228
     18 C          64.4182   91.6818   12.2297 C.ar    1  UNL1       -0.0072
     19 C          66.6224   92.6217   13.2338 C.3     1  UNL1        0.0223
     20 C          67.8062   92.3743   14.1210 C.3     1  UNL1        0.0047
     21 C          66.6648   93.7232   12.2164 C.3     1  UNL1        0.0047
     22 C          62.7950   85.1217   10.1266 C.3     1  UNL1        0.0342
     23 C          62.3532   84.0562   13.9239 C.ar    1  UNL1        0.1535
     24 C          62.4545   84.9079   12.6934 C.ar    1  UNL1        0.0341
     25 C          62.6937   84.2698   11.3572 C.ar    1  UNL1       -0.0166
     26 C          62.8318   82.7800   11.2514 C.ar    1  UNL1        0.0268
     27 C          62.7306   81.9282   12.4819 C.ar    1  UNL1        0.1556
     28 F          62.8686   80.4383   12.3762 F       1  UNL1       -0.2028
     29 C          62.4913   82.5663   13.8182 C.ar    1  UNL1        0.1037
     30 N          62.3901   81.7145   15.0487 N.pl3   1  UNL1       -0.3529
     31 H          62.4807   80.7366   14.9793 H       1  UNL1        0.1425
     32 H          62.2330   82.1332   15.9258 H       1  UNL1        0.1425
     33 O          62.1140   84.6943   15.2602 O.3     1  UNL1       -0.4665
     34 C          63.0396   85.7652   15.7565 C.3     1  UNL1        0.2891
     35 C          62.9134   86.2734   17.1621 C.3     1  UNL1        0.4366
     36 F          62.7872   86.7816   18.5677 F       1  UNL1       -0.1663
     37 F          62.3037   84.9680   17.5794 F       1  UNL1       -0.1663
     38 F          63.5231   87.5788   16.7449 F       1  UNL1       -0.1663
     39 C          64.0914   86.3280   14.8471 C.3     1  UNL1        0.1945
     40 C          65.6627   84.3078   14.3997 C.3     1  UNL1        0.1743
     41 O          65.4674   85.7309   14.8320 O.3     1  UNL1       -0.3469
@<TRIPOS>UNITY_ATOM_ATTR
3 1
charge 1
4 1
charge -1
@<TRIPOS>BOND
     1    40    41    1
     2    41    39    1
     3    34    39    1
     4    34    33    1
     5    33    23    1
     6    23    24   ar
     7    24    25   ar
     8    25    22    1
     9     1    22    1
    10     1     2    1
    11     2     3    1
    12     3     4    2
    13     3     5    1
    14     5     6    1
    15     6    10    1
    16    10    12    1
    17    12    13    1
    18    13    14   ar
    19    14    15   ar
    20    15    16   ar
    21    16    17   ar
    22    17    19    1
    23    19    20    1
    24    19    21    1
    25    17    18   ar
    26     6     7    1
    27     7     8    1
    28    25    26   ar
    29    26    27   ar
    30    27    28    1
    31    27    29   ar
    32    29    30    1
    33    34    35    1
    34    35    36    1
    35    35    37    1
    36    35    38    1
    37    29    23   ar
    38     7     1    1
    39    18    13   ar
    40    10    11    1
    41     8     9    1
    42    30    31    1
    43    30    32    1
@<TRIPOS>MOLECULE
*****
 41 43 0 0 0
SMALL
GASTEIGER

@<TRIPOS>ATOM
      1 C          63.2472   90.3257   12.9539 C.3     1  UNL1        0.0920
      2 C          62.6022   90.9240   11.7389 C.3     1  UNL1        0.2582
      3 S          62.0541   90.0320   10.6647 S.O     1  UNL1        0.0319
      4 O          61.4092   90.6303    9.4498 O.co2   1  UNL1       -0.6812
      5 C          62.1509   88.5417   10.8055 C.3     1  UNL1        0.2736
      6 C          62.7958   87.9435   12.0204 C.3     1  UNL1        0.1416
      7 C          63.3440   88.8355   13.0947 C.3     1  UNL1        0.1353
      8 O          63.9889   88.2371   14.3097 O.3     1  UNL1       -0.3827
      9 H          63.9691   87.2696   14.2429 H       1  UNL1        0.2104
     10 N          62.8927   86.4532   12.1612 N.3     1  UNL1       -0.2887
     11 H          62.2728   86.1889   12.9269 H       1  UNL1        0.1237
     12 C          62.5502   85.5665   11.0009 C.3     1  UNL1        0.0958
     13 C          62.9284   84.1152   11.0287 C.ar    1  UNL1       -0.0067
     14 C          63.8454   83.5589    9.9801 C.ar    1  UNL1       -0.0029
     15 C          64.2237   82.1077   10.0080 C.ar    1  UNL1       -0.0006
     16 C          63.6849   81.2127   11.0845 C.ar    1  UNL1       -0.0043
     17 C          62.7679   81.7690   12.1331 C.ar    1  UNL1       -0.0228
     18 C          62.3897   83.2203   12.1052 C.ar    1  UNL1       -0.0072
     19 C          62.2292   80.8741   13.2096 C.3     1  UNL1        0.0223
     20 C          62.4049   79.3880   13.1071 C.3     1  UNL1        0.0047
     21 C          61.5147   81.4653   14.3886 C.3     1  UNL1        0.0047
     22 C          63.7953   91.2176   14.0282 C.3     1  UNL1        0.0342
     23 C          67.4860   92.0394   12.8225 C.ar    1  UNL1        0.1535
     24 C          66.0201   91.7238   12.7854 C.ar    1  UNL1        0.0341
     25 C          65.2613   91.5333   14.0653 C.ar    1  UNL1       -0.0166
     26 C          65.9684   91.6586   15.3822 C.ar    1  UNL1        0.0268
     27 C          67.4343   91.9742   15.4192 C.ar    1  UNL1        0.1556
     28 F          68.1415   92.0995   16.7362 F       1  UNL1       -0.2028
     29 C          68.1931   92.1647   14.1394 C.ar    1  UNL1        0.1037
     30 N          69.6591   92.4804   14.1765 N.pl3   1  UNL1       -0.3529
     31 H          70.1232   92.5626   15.0408 H       1  UNL1        0.1425
     32 H          70.1571   92.6054   13.3365 H       1  UNL1        0.1425
     33 O          68.2448   92.2299   11.5427 O.3     1  UNL1       -0.4665
     34 C          67.6610   93.0648   10.4417 C.3     1  UNL1        0.2891
     35 C          68.2034   92.9533    9.0477 C.3     1  UNL1        0.4366
     36 F          68.7459   92.8419    7.6537 F       1  UNL1       -0.1663
     37 F          69.2006   91.9358    9.5170 F       1  UNL1       -0.1663
     38 F          67.2063   93.9708    8.5784 F       1  UNL1       -0.1663
     39 C          66.5347   94.0111   10.7348 C.3     1  UNL1        0.1945
     40 C          66.6731   96.6017   10.5935 C.3     1  UNL1        0.1743
     41 O          66.8163   95.3343   11.3829 O.3     1  UNL1       -0.3469
@<TRIPOS>UNITY_ATOM_ATTR
3 1
charge 1
4 1
charge -1
@<TRIPOS>BOND
     1    40    41    1
     2    41    39    1
     3    34    39    1
     4    34    33    1
     5    33    23    1
     6    23    24   ar
     7    24    25   ar
     8    25    22    1
     9     1    22    1
    10     1     2    1
    11     2     3    1
    12     3     4    2
    13     3     5    1
    14     5     6    1
    15     6    10    1
    16    10    12    1
    17    12    13    1
    18    13    14   ar
    19    14    15   ar
    20    15    16   ar
    21    16    17   ar
    22    17    19    1
    23    19    20    1
    24    19    21    1
    25    17    18   ar
    26     6     7    1
    27     7     8    1
    28    25    26   ar
    29    26    27   ar
    30    27    28    1
    31    27    29   ar
    32    29    30    1
    33    34    35    1
    34    35    36    1
    35    35    37    1
    36    35    38    1
    37    29    23   ar
    38     7     1    1
    39    18    13   ar
    40    10    11    1
    41     8     9    1
    42    30    31    1
    43    30    32    1
@<TRIPOS>MOLECULE
*****
 41 43 0 0 0
SMALL
GASTEIGER

@<TRIPOS>ATOM
      1 C          60.8930   87.6636   10.4131 C.3     1  UNL1        0.0920
      2 C          59.7451   87.8011   11.3689 C.3     1  UNL1        0.2582
      3 S          59.4266   89.1374   11.9712 S.O     1  UNL1        0.0319
      4 O          58.2788   89.2749   12.9270 O.co2   1  UNL1       -0.6812
      5 C          60.2558   90.3363   11.6176 C.3     1  UNL1        0.2736
      6 C          61.4036   90.1988   10.6617 C.3     1  UNL1        0.1416
      7 C          61.7222   88.8625   10.0595 C.3     1  UNL1        0.1353
      8 O          62.8700   88.7251    9.1036 O.3     1  UNL1       -0.3827
      9 H          63.2972   89.5879    8.9851 H       1  UNL1        0.2104
     10 N          62.2329   91.3978   10.3081 N.3     1  UNL1       -0.2887
     11 H          61.8757   92.1765   10.8616 H       1  UNL1        0.1237
     12 C          63.7188   91.3681   10.5109 C.3     1  UNL1        0.0958
     13 C          64.2857   91.3273   11.8990 C.ar    1  UNL1       -0.0067
     14 C          65.2592   92.3787   12.3429 C.ar    1  UNL1       -0.0029
     15 C          65.8260   92.3379   13.7310 C.ar    1  UNL1       -0.0006
     16 C          65.4194   91.2457   14.6754 C.ar    1  UNL1       -0.0043
     17 C          64.4459   90.1943   14.2316 C.ar    1  UNL1       -0.0228
     18 C          63.8790   90.2352   12.8434 C.ar    1  UNL1       -0.0072
     19 C          64.0392   89.1022   15.1759 C.3     1  UNL1        0.0223
     20 C          64.4583   87.6866   14.9105 C.3     1  UNL1        0.0047
     21 C          63.2135   89.4256   16.3857 C.3     1  UNL1        0.0047
     22 C          61.2115   86.3273    9.8108 C.3     1  UNL1        0.0342
     23 C          63.4397   84.6505   12.6346 C.ar    1  UNL1        0.1535
     24 C          62.4642   85.5657   11.9558 C.ar    1  UNL1        0.0341
     25 C          62.1871   85.4121   10.4896 C.ar    1  UNL1       -0.0166
     26 C          62.8856   84.3434    9.7023 C.ar    1  UNL1        0.0268
     27 C          63.8611   83.4282   10.3811 C.ar    1  UNL1        0.1556
     28 F          64.5596   82.3594    9.5937 F       1  UNL1       -0.2028
     29 C          64.1381   83.5818   11.8472 C.ar    1  UNL1        0.1037
     30 N          65.1137   82.6666   12.5261 N.pl3   1  UNL1       -0.3529
     31 H          65.5721   81.9651   12.0093 H       1  UNL1        0.1425
     32 H          65.2956   82.7674   13.4884 H       1  UNL1        0.1425
     33 O          63.7168   84.8041   14.1008 O.3     1  UNL1       -0.4665
     34 C          62.7217   84.3089   15.1080 C.3     1  UNL1        0.2891
     35 C          62.3382   85.1743   16.2716 C.3     1  UNL1        0.4366
     36 F          61.9548   86.0397   17.4352 F       1  UNL1       -0.1663
     37 F          60.9049   85.1306   15.8319 F       1  UNL1       -0.1663
     38 F          63.7716   85.2181   16.7114 F       1  UNL1       -0.1663
     39 C          62.1101   82.9482   14.9516 C.3     1  UNL1        0.1945
     40 C          62.4199   80.6460   13.7880 C.3     1  UNL1        0.1743
     41 O          62.9754   81.7718   14.6089 O.3     1  UNL1       -0.3469
@<TRIPOS>UNITY_ATOM_ATTR
3 1
charge 1
4 1
charge -1
@<TRIPOS>BOND
     1    40    41    1
     2    41    39    1
     3    34    39    1
     4    34    33    1
     5    33    23    1
     6    23    24   ar
     7    24    25   ar
     8    25    22    1
     9     1    22    1
    10     1     2    1
    11     2     3    1
    12     3     4    2
    13     3     5    1
    14     5     6    1
    15     6    10    1
    16    10    12    1
    17    12    13    1
    18    13    14   ar
    19    14    15   ar
    20    15    16   ar
    21    16    17   ar
    22    17    19    1
    23    19    20    1
    24    19    21    1
    25    17    18   ar
    26     6     7    1
    27     7     8    1
    28    25    26   ar
    29    26    27   ar
    30    27    28    1
    31    27    29   ar
    32    29    30    1
    33    34    35    1
    34    35    36    1
    35    35    37    1
    36    35    38    1
    37    29    23   ar
    38     7     1    1
    39    18    13   ar
    40    10    11    1
    41     8     9    1
    42    30    31    1
    43    30    32    1
