@<TRIPOS>MOLECULE
*****
 37 42 0 0 0
SMALL
GASTEIGER

@<TRIPOS>ATOM
      1 C          60.5988   88.6606    9.8398 C.3     1  UNL1        0.1455
      2 C          59.8655   89.4332    8.7837 C.3     1  UNL1        0.1634
      3 O          59.5281   88.7811    7.4757 O.3     1  UNL1       -0.3507
      4 C          59.9240   87.3564    7.2237 C.3     1  UNL1        0.1598
      5 C          60.6573   86.5838    8.2798 C.3     1  UNL1        0.1093
      6 N          60.9947   87.2359    9.5879 N.3     1  UNL1       -0.1499
      7 C          60.9362   89.3127   11.1479 C.3     1  UNL1        0.1550
      8 C          59.5573   89.5088   11.7045 C.3     1  UNL1        0.0453
      9 C          60.7540   89.9542   12.4915 C.3     1  UNL1        0.0453
     10 O          62.4324   89.3430   11.0455 O.3     1  UNL1       -0.4403
     11 C          63.3091   89.9217   11.9265 C.3     1  UNL1        0.0948
     12 C          64.0167   91.2176   11.6623 C.2     1  UNL1        0.2261
     13 O          63.8982   92.0779   10.4392 O.2     1  UNL1       -0.2749
     14 N          64.9607   91.7786   12.6841 N.am    1  UNL1       -0.2794
     15 C          65.7356   93.0570   12.5606 C.3     1  UNL1        0.0953
     16 C          66.5495   93.2282   13.8090 C.3     1  UNL1        0.0233
     17 C          66.2775   92.0556   14.7040 C.3     1  UNL1        0.0233
     18 C          65.2956   91.1598   14.0088 C.3     1  UNL1        0.0953
     19 C          64.3206   90.4650   13.0891 C.3     1  UNL1        0.1165
     20 N          64.0840   91.2001   11.8030 N.am    1  UNL1       -0.2426
     21 C          63.1400   90.6391   10.7813 C.2     1  UNL1        0.4048
     22 O          63.1412   91.6116    9.6393 O.2     1  UNL1       -0.2262
     23 C          64.7916   92.4960   11.5388 C.3     1  UNL1        0.1165
     24 S          61.7280   86.4633   10.6439 S.O2    1  UNL1        0.0635
     25 O          60.7439   86.3663   11.7718 O.2     1  UNL1       -0.1528
     26 O          62.8269   86.4654    9.6228 O.2     1  UNL1       -0.1528
     27 C          62.4614   85.6906   11.7000 C.ar    1  UNL1        0.1223
     28 C          63.1480   86.4159   12.8191 C.ar    1  UNL1        0.0208
     29 C          63.8814   85.6432   13.8752 C.ar    1  UNL1        0.0128
     30 C          63.9280   84.1452   13.8121 C.ar    1  UNL1        0.0578
     31 CL         64.6613   83.3726   14.8681 Cl      1  UNL1       -0.0822
     32 C          63.2413   83.4199   12.6930 C.ar    1  UNL1        0.0128
     33 C          62.5080   84.1927   11.6369 C.ar    1  UNL1        0.0208
     34 C          61.0533   85.1591    8.0279 C.3     1  UNL1        0.0203
     35 C          61.6622   84.7712    6.7131 C.3     1  UNL1        0.0015
     36 C          62.8369   84.7529    5.7805 C.3     1  UNL1        0.0000
     37 C          61.5421   84.1177    5.3682 C.3     1  UNL1        0.0000
@<TRIPOS>BOND
     1    11    12    1
     2    12    13    2
     3    12    14   am
     4    14    15    1
     5    15    16    1
     6    16    17    1
     7    17    18    1
     8    18    19    1
     9    19    20    1
    10    20    21   am
    11    21    22    2
    12    21    10    1
    13    10     7    1
    14     1     7    1
    15     1     2    1
    16     2     3    1
    17     3     4    1
    18     4     5    1
    19     5    34    1
    20    34    35    1
    21    35    36    1
    22    36    37    1
    23     5     6    1
    24     6    24    1
    25    24    25    2
    26    24    26    2
    27    24    27    1
    28    27    28   ar
    29    28    29   ar
    30    29    30   ar
    31    30    31    1
    32    30    32   ar
    33    32    33   ar
    34     7     8    1
    35     8     9    1
    36    20    23    1
    37    18    14    1
    38     9     7    1
    39    23    15    1
    40     6     1    1
    41    33    27   ar
    42    37    35    1
@<TRIPOS>MOLECULE
*****
 37 42 0 0 0
SMALL
GASTEIGER

@<TRIPOS>ATOM
      1 C          63.3248   88.3820   13.0673 C.3     1  UNL1        0.1455
      2 C          64.1607   88.0324   14.2627 C.3     1  UNL1        0.1634
      3 O          64.4588   86.5960   14.5753 O.3     1  UNL1       -0.3507
      4 C          63.9209   85.5091   13.6923 C.3     1  UNL1        0.1598
      5 C          63.0851   85.8587   12.4969 C.3     1  UNL1        0.1093
      6 N          62.7870   87.2952   12.1844 N.3     1  UNL1       -0.1499
      7 C          63.0267   89.8186   12.7547 C.3     1  UNL1        0.1550
      8 C          61.5471   89.8370   13.0005 C.3     1  UNL1        0.0453
      9 C          62.2506   91.0881   12.5653 C.3     1  UNL1        0.0453
     10 O          64.4027   90.2990   12.4004 O.3     1  UNL1       -0.4403
     11 C          64.8701   91.3745   11.6902 C.3     1  UNL1        0.0948
     12 C          65.4188   92.6157   12.3292 C.2     1  UNL1        0.2261
     13 O          65.5498   92.8928   13.7976 O.2     1  UNL1       -0.2749
     14 N          65.9093   93.7459   11.4735 N.am    1  UNL1       -0.2794
     15 C          66.4811   95.0417   11.9672 C.3     1  UNL1        0.0953
     16 C          66.8392   95.8754   10.7727 C.3     1  UNL1        0.0233
     17 C          66.4888   95.0947    9.5408 C.3     1  UNL1        0.0233
     18 C          65.9140   93.7786    9.9739 C.3     1  UNL1        0.0953
     19 C          65.3836   92.5594   10.6891 C.3     1  UNL1        0.1165
     20 N          65.4419   92.6704   12.1839 N.am    1  UNL1       -0.2426
     21 C          64.9515   91.5402   13.0395 C.2     1  UNL1        0.4048
     22 O          65.1532   91.9792   14.4596 O.2     1  UNL1       -0.2262
     23 C          65.9906   93.9116   12.8229 C.3     1  UNL1        0.1165
     24 S          61.9511   87.6448   10.9890 S.O2    1  UNL1        0.0635
     25 O          62.9158   88.3124   10.0542 O.2     1  UNL1       -0.1528
     26 O          60.8592   87.0058   11.7950 O.2     1  UNL1       -0.1528
     27 C          61.1151   87.9944    9.7935 C.ar    1  UNL1        0.1223
     28 C          60.5204   86.9060    8.9501 C.ar    1  UNL1        0.0208
     29 C          59.6844   87.2556    7.7546 C.ar    1  UNL1        0.0128
     30 C          59.4433   88.6937    7.4027 C.ar    1  UNL1        0.0578
     31 CL         58.6074   89.0433    6.2073 Cl      1  UNL1       -0.0822
     32 C          60.0381   89.7822    8.2462 C.ar    1  UNL1        0.0128
     33 C          60.8741   89.4325    9.4417 C.ar    1  UNL1        0.0208
     34 C          62.5473   84.7719   11.6140 C.3     1  UNL1        0.0203
     35 C          63.4474   83.6623   11.1575 C.3     1  UNL1        0.0015
     36 C          64.2246   82.4142   11.4551 C.3     1  UNL1        0.0000
     37 C          64.2296   82.9883   10.0693 C.3     1  UNL1        0.0000
@<TRIPOS>BOND
     1    11    12    1
     2    12    13    2
     3    12    14   am
     4    14    15    1
     5    15    16    1
     6    16    17    1
     7    17    18    1
     8    18    19    1
     9    19    20    1
    10    20    21   am
    11    21    22    2
    12    21    10    1
    13    10     7    1
    14     1     7    1
    15     1     2    1
    16     2     3    1
    17     3     4    1
    18     4     5    1
    19     5    34    1
    20    34    35    1
    21    35    36    1
    22    36    37    1
    23     5     6    1
    24     6    24    1
    25    24    25    2
    26    24    26    2
    27    24    27    1
    28    27    28   ar
    29    28    29   ar
    30    29    30   ar
    31    30    31    1
    32    30    32   ar
    33    32    33   ar
    34     7     8    1
    35     8     9    1
    36    20    23    1
    37    18    14    1
    38     9     7    1
    39    23    15    1
    40     6     1    1
    41    33    27   ar
    42    37    35    1
@<TRIPOS>MOLECULE
*****
 37 42 0 0 0
SMALL
GASTEIGER

@<TRIPOS>ATOM
      1 C          63.1371   88.2494   12.9753 C.3     1  UNL1        0.1455
      2 C          63.9524   87.8354   14.1642 C.3     1  UNL1        0.1634
      3 O          64.2622   86.3857   14.3932 O.3     1  UNL1       -0.3507
      4 C          63.7566   85.3500   13.4331 C.3     1  UNL1        0.1598
      5 C          62.9412   85.7640   12.2442 C.3     1  UNL1        0.1093
      6 N          62.6314   87.2138   12.0152 N.3     1  UNL1       -0.1499
      7 C          62.8273   89.6991   12.7463 C.3     1  UNL1        0.1550
      8 C          61.3812   89.5987   12.3609 C.3     1  UNL1        0.0453
      9 C          62.0526   90.9391   12.4111 C.3     1  UNL1        0.0453
     10 O          64.1658   90.3030   13.0522 O.3     1  UNL1       -0.4403
     11 C          65.3567   90.8829   13.4059 C.3     1  UNL1        0.0948
     12 C          65.5706   91.6187   14.6953 C.2     1  UNL1        0.2261
     13 O          64.5637   91.8435   15.7842 O.2     1  UNL1       -0.2749
     14 N          66.9090   92.2231   15.0010 N.am    1  UNL1       -0.2794
     15 C          67.2703   92.9834   16.2425 C.3     1  UNL1        0.0953
     16 C          68.7057   93.4035   16.1275 C.3     1  UNL1        0.0233
     17 C          69.2315   92.9028   14.8150 C.3     1  UNL1        0.0233
     18 C          68.1211   92.1733   14.1187 C.3     1  UNL1        0.0953
     19 C          66.8426   91.5118   13.6634 C.3     1  UNL1        0.1165
     20 N          65.7181   91.6432   14.6474 N.am    1  UNL1       -0.2426
     21 C          64.3797   91.0389   14.3418 C.2     1  UNL1        0.4048
     22 O          63.5053   91.3536   15.5192 O.2     1  UNL1       -0.2262
     23 C          65.9319   92.3790   15.9368 C.3     1  UNL1        0.1165
     24 S          61.8160   87.6277   10.8262 S.O2    1  UNL1        0.0635
     25 O          62.8297   88.1669    9.8609 O.2     1  UNL1       -0.1528
     26 O          60.6767   87.1283   11.6643 O.2     1  UNL1       -0.1528
     27 C          61.0006   88.0417    9.6372 C.ar    1  UNL1        0.1223
     28 C          60.2303   87.0145    8.8617 C.ar    1  UNL1        0.0208
     29 C          59.4149   87.4286    7.6726 C.ar    1  UNL1        0.0128
     30 C          59.3698   88.8698    7.2592 C.ar    1  UNL1        0.0578
     31 CL         58.5544   89.2838    6.0703 Cl      1  UNL1       -0.0822
     32 C          60.1401   89.8970    8.0348 C.ar    1  UNL1        0.0128
     33 C          60.9556   89.4829    9.2238 C.ar    1  UNL1        0.0208
     34 C          62.4356   84.7284   11.2841 C.3     1  UNL1        0.0203
     35 C          63.1998   83.4530   11.0856 C.3     1  UNL1        0.0015
     36 C          63.4094   82.0016   11.4011 C.3     1  UNL1        0.0000
     37 C          64.3141   82.6955   10.4265 C.3     1  UNL1        0.0000
@<TRIPOS>BOND
     1    11    12    1
     2    12    13    2
     3    12    14   am
     4    14    15    1
     5    15    16    1
     6    16    17    1
     7    17    18    1
     8    18    19    1
     9    19    20    1
    10    20    21   am
    11    21    22    2
    12    21    10    1
    13    10     7    1
    14     1     7    1
    15     1     2    1
    16     2     3    1
    17     3     4    1
    18     4     5    1
    19     5    34    1
    20    34    35    1
    21    35    36    1
    22    36    37    1
    23     5     6    1
    24     6    24    1
    25    24    25    2
    26    24    26    2
    27    24    27    1
    28    27    28   ar
    29    28    29   ar
    30    29    30   ar
    31    30    31    1
    32    30    32   ar
    33    32    33   ar
    34     7     8    1
    35     8     9    1
    36    20    23    1
    37    18    14    1
    38     9     7    1
    39    23    15    1
    40     6     1    1
    41    33    27   ar
    42    37    35    1
@<TRIPOS>MOLECULE
*****
 37 42 0 0 0
SMALL
GASTEIGER

@<TRIPOS>ATOM
      1 C          62.6417   90.3724   11.4807 C.3     1  UNL1        0.1455
      2 C          62.7919   91.1839   10.2283 C.3     1  UNL1        0.1634
      3 O          63.9925   92.0643   10.0444 O.3     1  UNL1       -0.3507
      4 C          65.0428   92.1330   11.1132 C.3     1  UNL1        0.1598
      5 C          64.8926   91.3214   12.3657 C.3     1  UNL1        0.1093
      6 N          63.6920   90.4411   12.5495 N.3     1  UNL1       -0.1499
      7 C          61.4411   89.4920   11.6645 C.3     1  UNL1        0.1550
      8 C          60.3519   90.5217   11.6074 C.3     1  UNL1        0.0453
      9 C          60.0071   89.0755   11.8063 C.3     1  UNL1        0.0453
     10 O          62.1134   88.1566   11.7855 O.3     1  UNL1       -0.4403
     11 C          62.5136   86.8467   11.8455 C.3     1  UNL1        0.0948
     12 C          62.6559   85.9666   10.6392 C.2     1  UNL1        0.2261
     13 O          62.3974   86.3441    9.2107 O.2     1  UNL1       -0.2749
     14 N          63.1003   84.5428   10.7978 N.am    1  UNL1       -0.2794
     15 C          63.2869   83.5488    9.6901 C.3     1  UNL1        0.0953
     16 C          63.7381   82.2546   10.2996 C.3     1  UNL1        0.0233
     17 C          63.8303   82.4487   11.7841 C.3     1  UNL1        0.0233
     18 C          63.4361   83.8629   12.0920 C.3     1  UNL1        0.0953
     19 C          63.0022   85.3089   12.1027 C.3     1  UNL1        0.1165
     20 N          62.7002   85.8527   10.7377 N.am    1  UNL1       -0.2426
     21 C          62.2558   87.2765   10.5791 C.2     1  UNL1        0.4048
     22 O          62.0447   87.4823    9.1084 O.2     1  UNL1       -0.2262
     23 C          62.8425   84.9726    9.5315 C.3     1  UNL1        0.1165
     24 S          63.5417   89.6295   13.8019 S.O2    1  UNL1        0.0635
     25 O          64.2601   88.3494   13.4933 O.2     1  UNL1       -0.1528
     26 O          62.7880   90.8371   14.2750 O.2     1  UNL1       -0.1528
     27 C          63.3915   88.8179   15.0545 C.ar    1  UNL1        0.1223
     28 C          62.9404   89.4758   16.3248 C.ar    1  UNL1        0.0208
     29 C          62.7901   88.6641   17.5773 C.ar    1  UNL1        0.0128
     30 C          63.0911   87.1947   17.5595 C.ar    1  UNL1        0.0578
     31 CL         62.9408   86.3831   18.8120 Cl      1  UNL1       -0.0822
     32 C          63.5422   86.5369   16.2891 C.ar    1  UNL1        0.0128
     33 C          63.6924   87.3486   15.0366 C.ar    1  UNL1        0.0208
     34 C          65.9428   91.3901   13.4344 C.3     1  UNL1        0.0203
     35 C          66.4509   92.7217   13.9020 C.3     1  UNL1        0.0015
     36 C          67.1948   93.5475   14.9094 C.3     1  UNL1        0.0000
     37 C          66.5873   94.2024   13.7044 C.3     1  UNL1        0.0000
@<TRIPOS>BOND
     1    11    12    1
     2    12    13    2
     3    12    14   am
     4    14    15    1
     5    15    16    1
     6    16    17    1
     7    17    18    1
     8    18    19    1
     9    19    20    1
    10    20    21   am
    11    21    22    2
    12    21    10    1
    13    10     7    1
    14     1     7    1
    15     1     2    1
    16     2     3    1
    17     3     4    1
    18     4     5    1
    19     5    34    1
    20    34    35    1
    21    35    36    1
    22    36    37    1
    23     5     6    1
    24     6    24    1
    25    24    25    2
    26    24    26    2
    27    24    27    1
    28    27    28   ar
    29    28    29   ar
    30    29    30   ar
    31    30    31    1
    32    30    32   ar
    33    32    33   ar
    34     7     8    1
    35     8     9    1
    36    20    23    1
    37    18    14    1
    38     9     7    1
    39    23    15    1
    40     6     1    1
    41    33    27   ar
    42    37    35    1
@<TRIPOS>MOLECULE
*****
 37 42 0 0 0
SMALL
GASTEIGER

@<TRIPOS>ATOM
      1 C          62.6240   90.4850   11.3944 C.3     1  UNL1        0.1455
      2 C          62.7510   91.3450   10.1721 C.3     1  UNL1        0.1634
      3 O          63.9594   92.2146    9.9890 O.3     1  UNL1       -0.3507
      4 C          65.0409   92.2242   11.0285 C.3     1  UNL1        0.1598
      5 C          64.9139   91.3642   12.2508 C.3     1  UNL1        0.1093
      6 N          63.7054   90.4946   12.4339 N.3     1  UNL1       -0.1499
      7 C          61.4155   89.6154   11.5775 C.3     1  UNL1        0.1550
      8 C          60.6199   90.4699   12.5191 C.3     1  UNL1        0.0453
      9 C          60.0765   89.1475   12.0655 C.3     1  UNL1        0.0453
     10 O          61.7915   88.4588   10.6994 O.3     1  UNL1       -0.4403
     11 C          62.0890   87.4698    9.7978 C.3     1  UNL1        0.0948
     12 C          61.1103   86.9442    8.7899 C.2     1  UNL1        0.2261
     13 O          59.6903   87.3864    8.5945 O.2     1  UNL1       -0.2749
     14 N          61.5220   85.8587    7.8400 N.am    1  UNL1       -0.2794
     15 C          60.6574   85.2366    6.7838 C.3     1  UNL1        0.0953
     16 C          61.4716   84.1982    6.0706 C.3     1  UNL1        0.0233
     17 C          62.8394   84.1784    6.6860 C.3     1  UNL1        0.0233
     18 C          62.8705   85.2047    7.7795 C.3     1  UNL1        0.0953
     19 C          62.6149   86.2879    8.7996 C.3     1  UNL1        0.1165
     20 N          61.2244   86.8477    8.7416 N.am    1  UNL1       -0.2426
     21 C          60.8127   87.9332    9.6915 C.2     1  UNL1        0.4048
     22 O          59.3844   88.2513    9.3617 O.2     1  UNL1       -0.2262
     23 C          60.2457   86.3221    7.7337 C.3     1  UNL1        0.1165
     24 S          63.5785   89.6346   13.6562 S.O2    1  UNL1        0.0635
     25 O          63.8932   88.2535   13.1627 O.2     1  UNL1       -0.1528
     26 O          63.2405   90.9393   14.3147 O.2     1  UNL1       -0.1528
     27 C          63.4515   88.7746   14.8787 C.ar    1  UNL1        0.1223
     28 C          62.9761   89.3720   16.1699 C.ar    1  UNL1        0.0208
     29 C          62.8492   88.5119   17.3923 C.ar    1  UNL1        0.0128
     30 C          63.1976   87.0546   17.3235 C.ar    1  UNL1        0.0578
     31 CL         63.0706   86.1946   18.5459 Cl      1  UNL1       -0.0822
     32 C          63.6730   86.4572   16.0323 C.ar    1  UNL1        0.0128
     33 C          63.7999   87.3173   14.8099 C.ar    1  UNL1        0.0208
     34 C          65.9953   91.3737   13.2903 C.3     1  UNL1        0.0203
     35 C          66.4961   92.6766   13.8395 C.3     1  UNL1        0.0015
     36 C          67.3131   93.4351   14.8431 C.3     1  UNL1        0.0000
     37 C          66.5463   94.1749   13.7873 C.3     1  UNL1        0.0000
@<TRIPOS>BOND
     1    11    12    1
     2    12    13    2
     3    12    14   am
     4    14    15    1
     5    15    16    1
     6    16    17    1
     7    17    18    1
     8    18    19    1
     9    19    20    1
    10    20    21   am
    11    21    22    2
    12    21    10    1
    13    10     7    1
    14     1     7    1
    15     1     2    1
    16     2     3    1
    17     3     4    1
    18     4     5    1
    19     5    34    1
    20    34    35    1
    21    35    36    1
    22    36    37    1
    23     5     6    1
    24     6    24    1
    25    24    25    2
    26    24    26    2
    27    24    27    1
    28    27    28   ar
    29    28    29   ar
    30    29    30   ar
    31    30    31    1
    32    30    32   ar
    33    32    33   ar
    34     7     8    1
    35     8     9    1
    36    20    23    1
    37    18    14    1
    38     9     7    1
    39    23    15    1
    40     6     1    1
    41    33    27   ar
    42    37    35    1
@<TRIPOS>MOLECULE
*****
 37 42 0 0 0
SMALL
GASTEIGER

@<TRIPOS>ATOM
      1 C          62.1842   86.6443   10.5844 C.3     1  UNL1        0.1455
      2 C          62.1896   86.4708    9.0945 C.3     1  UNL1        0.1634
      3 O          62.8751   85.2867    8.4799 O.3     1  UNL1       -0.3507
      4 C          63.5553   84.2761    9.3551 C.3     1  UNL1        0.1598
      5 C          63.5499   84.4496   10.8450 C.3     1  UNL1        0.1093
      6 N          62.8643   85.6338   11.4597 N.3     1  UNL1       -0.1499
      7 C          61.4986   87.8286   11.1991 C.3     1  UNL1        0.1550
      8 C          60.0802   87.5426   10.8036 C.3     1  UNL1        0.0453
      9 C          60.4031   88.7705   11.6023 C.3     1  UNL1        0.0453
     10 O          62.6788   88.5257   11.8081 O.3     1  UNL1       -0.4403
     11 C          63.4892   89.3978   12.4881 C.3     1  UNL1        0.0948
     12 C          63.9639   90.7029   11.9213 C.2     1  UNL1        0.2261
     13 O          63.6514   91.2658   10.5665 O.2     1  UNL1       -0.2749
     14 N          64.8499   91.5970   12.7372 N.am    1  UNL1       -0.2794
     15 C          65.4003   92.9241   12.3062 C.3     1  UNL1        0.0953
     16 C          66.2317   93.4682   13.4299 C.3     1  UNL1        0.0233
     17 C          66.1952   92.4773   14.5555 C.3     1  UNL1        0.0233
     18 C          65.3412   91.3208   14.1273 C.3     1  UNL1        0.0953
     19 C          64.4510   90.3138   13.4398 C.3     1  UNL1        0.1165
     20 N          64.0396   90.7250   12.0571 N.am    1  UNL1       -0.2426
     21 C          63.1535   89.8309   11.2413 C.2     1  UNL1        0.4048
     22 O          62.9445   90.5371    9.9345 O.2     1  UNL1       -0.2262
     23 C          64.5143   92.0301   11.4904 C.3     1  UNL1        0.1165
     24 S          62.8589   85.8074   12.9496 S.O2    1  UNL1        0.0635
     25 O          64.1640   86.4871   13.2406 O.2     1  UNL1       -0.1528
     26 O          61.5232   85.1338   12.8392 O.2     1  UNL1       -0.1528
     27 C          62.8535   85.9809   14.4396 C.ar    1  UNL1        0.1223
     28 C          62.1614   84.9738   15.3094 C.ar    1  UNL1        0.0208
     29 C          62.1560   85.1474   16.7994 C.ar    1  UNL1        0.0128
     30 C          62.8427   86.3280   17.4194 C.ar    1  UNL1        0.0578
     31 CL         62.8373   86.5016   18.9093 Cl      1  UNL1       -0.0822
     32 C          63.5349   87.3351   16.5495 C.ar    1  UNL1        0.0128
     33 C          63.5403   87.1615   15.0595 C.ar    1  UNL1        0.0208
     34 C          64.2301   83.4391   11.7203 C.3     1  UNL1        0.0203
     35 C          63.4429   82.3061   12.3090 C.3     1  UNL1        0.0015
     36 C          62.6469   81.7275   13.4412 C.3     1  UNL1        0.0000
     37 C          62.8753   80.9221   12.1966 C.3     1  UNL1        0.0000
@<TRIPOS>BOND
     1    11    12    1
     2    12    13    2
     3    12    14   am
     4    14    15    1
     5    15    16    1
     6    16    17    1
     7    17    18    1
     8    18    19    1
     9    19    20    1
    10    20    21   am
    11    21    22    2
    12    21    10    1
    13    10     7    1
    14     1     7    1
    15     1     2    1
    16     2     3    1
    17     3     4    1
    18     4     5    1
    19     5    34    1
    20    34    35    1
    21    35    36    1
    22    36    37    1
    23     5     6    1
    24     6    24    1
    25    24    25    2
    26    24    26    2
    27    24    27    1
    28    27    28   ar
    29    28    29   ar
    30    29    30   ar
    31    30    31    1
    32    30    32   ar
    33    32    33   ar
    34     7     8    1
    35     8     9    1
    36    20    23    1
    37    18    14    1
    38     9     7    1
    39    23    15    1
    40     6     1    1
    41    33    27   ar
    42    37    35    1
@<TRIPOS>MOLECULE
*****
 37 42 0 0 0
SMALL
GASTEIGER

@<TRIPOS>ATOM
      1 C          63.5597   89.9156   13.1371 C.3     1  UNL1        0.1455
      2 C          62.4967   89.2867   12.2859 C.3     1  UNL1        0.1634
      3 O          62.3015   89.7434   10.8706 O.3     1  UNL1       -0.3507
      4 C          63.1693   90.8291   10.3064 C.3     1  UNL1        0.1598
      5 C          64.2323   91.4580   11.1576 C.3     1  UNL1        0.1093
      6 N          64.4275   91.0012   12.5730 N.3     1  UNL1       -0.1499
      7 C          63.7549   89.4588   14.5526 C.3     1  UNL1        0.1550
      8 C          63.3186   90.6919   15.2867 C.3     1  UNL1        0.0453
      9 C          63.7750   89.4854   16.0522 C.3     1  UNL1        0.0453
     10 O          64.2590   88.0670   14.3100 O.3     1  UNL1       -0.4403
     11 C          63.9740   86.8225   13.8102 C.3     1  UNL1        0.0948
     12 C          63.4721   85.6860   14.6506 C.2     1  UNL1        0.2261
     13 O          63.2028   85.7044   16.1261 O.2     1  UNL1       -0.2749
     14 N          63.1856   84.3558   14.0192 N.am    1  UNL1       -0.2794
     15 C          62.6822   83.1335   14.7280 C.3     1  UNL1        0.0953
     16 C          62.5377   82.0367   13.7151 C.3     1  UNL1        0.0233
     17 C          62.9518   82.5811   12.3801 C.3     1  UNL1        0.0233
     18 C          63.3523   84.0144   12.5681 C.3     1  UNL1        0.0953
     19 C          63.6860   85.4067   13.0472 C.3     1  UNL1        0.1165
     20 N          63.4705   85.6002   14.5190 N.am    1  UNL1       -0.2426
     21 C          63.7570   86.9304   15.1504 C.2     1  UNL1        0.4048
     22 O          63.4379   86.7736   16.6076 O.2     1  UNL1       -0.2262
     23 C          62.9686   84.4637   15.3594 C.3     1  UNL1        0.1165
     24 S          65.4905   91.6301   13.4242 S.O2    1  UNL1        0.0635
     25 O          66.4276   90.4992   13.7291 O.2     1  UNL1       -0.1528
     26 O          64.6654   92.8660   13.2193 O.2     1  UNL1       -0.1528
     27 C          66.5535   92.2590   14.2754 C.ar    1  UNL1        0.1223
     28 C          66.7679   93.7430   14.2328 C.ar    1  UNL1        0.0208
     29 C          67.8310   94.3719   15.0840 C.ar    1  UNL1        0.0128
     30 C          68.6795   93.5168   15.9779 C.ar    1  UNL1        0.0578
     31 CL         69.7424   94.1457   16.8291 Cl      1  UNL1       -0.0822
     32 C          68.4649   92.0328   16.0205 C.ar    1  UNL1        0.0128
     33 C          67.4019   91.4039   15.1692 C.ar    1  UNL1        0.0208
     34 C          65.1001   92.5436   10.5935 C.3     1  UNL1        0.0203
     35 C          66.5673   92.3034   10.3942 C.3     1  UNL1        0.0015
     36 C          67.9479   92.1532   10.9612 C.3     1  UNL1        0.0000
     37 C          67.7279   92.0374    9.4819 C.3     1  UNL1        0.0000
@<TRIPOS>BOND
     1    11    12    1
     2    12    13    2
     3    12    14   am
     4    14    15    1
     5    15    16    1
     6    16    17    1
     7    17    18    1
     8    18    19    1
     9    19    20    1
    10    20    21   am
    11    21    22    2
    12    21    10    1
    13    10     7    1
    14     1     7    1
    15     1     2    1
    16     2     3    1
    17     3     4    1
    18     4     5    1
    19     5    34    1
    20    34    35    1
    21    35    36    1
    22    36    37    1
    23     5     6    1
    24     6    24    1
    25    24    25    2
    26    24    26    2
    27    24    27    1
    28    27    28   ar
    29    28    29   ar
    30    29    30   ar
    31    30    31    1
    32    30    32   ar
    33    32    33   ar
    34     7     8    1
    35     8     9    1
    36    20    23    1
    37    18    14    1
    38     9     7    1
    39    23    15    1
    40     6     1    1
    41    33    27   ar
    42    37    35    1
@<TRIPOS>MOLECULE
*****
 37 42 0 0 0
SMALL
GASTEIGER

@<TRIPOS>ATOM
      1 C          61.6865   96.0284   -1.7167 C.3     1  UNL1        0.1455
      2 C          62.9377   96.8555   -1.6982 C.3     1  UNL1        0.1634
      3 O          64.0888   96.4941   -2.5894 O.3     1  UNL1       -0.3507
      4 C          63.9887   95.3056   -3.4991 C.3     1  UNL1        0.1598
      5 C          62.7375   94.4785   -3.5175 C.3     1  UNL1        0.1093
      6 N          61.5863   94.8400   -2.6263 N.3     1  UNL1       -0.1499
      7 C          60.5352   96.3899   -0.8254 C.3     1  UNL1        0.1550
      8 C          59.5319   96.8158   -1.8558 C.3     1  UNL1        0.0453
      9 C          59.1745   96.8556   -0.3996 C.3     1  UNL1        0.0453
     10 O          61.1389   96.0895    0.5145 O.3     1  UNL1       -0.4403
     11 C          61.9044   95.0495    0.9749 C.3     1  UNL1        0.0948
     12 C          61.3624   93.9250    1.8065 C.2     1  UNL1        0.2261
     13 O          59.9459   93.7427    2.2652 O.2     1  UNL1       -0.2749
     14 N          62.2736   92.8264    2.2677 N.am    1  UNL1       -0.2794
     15 C          61.8773   91.6433    3.1003 C.3     1  UNL1        0.0953
     16 C          63.0999   90.8037    3.3245 C.3     1  UNL1        0.0233
     17 C          64.2520   91.4680    2.6305 C.3     1  UNL1        0.0233
     18 C          63.7413   92.7180    1.9774 C.3     1  UNL1        0.0953
     19 C          62.9614   93.8923    1.4370 C.3     1  UNL1        0.1165
     20 N          61.5080   93.8664    1.8074 N.am    1  UNL1       -0.2426
     21 C          60.5968   94.9649    1.3462 C.2     1  UNL1        0.4048
     22 O          59.2382   94.6292    1.8862 O.2     1  UNL1       -0.2262
     23 C          60.9660   92.7419    2.6391 C.3     1  UNL1        0.1165
     24 S          60.3351   94.0129   -2.6447 S.O2    1  UNL1        0.0635
     25 O          60.4759   93.1149   -1.4515 O.2     1  UNL1       -0.1528
     26 O          60.0337   94.8277   -3.8677 O.2     1  UNL1       -0.1528
     27 C          59.0838   93.1858   -2.6632 C.ar    1  UNL1        0.1223
     28 C          58.4970   92.7425   -3.9706 C.ar    1  UNL1        0.0208
     29 C          57.2457   91.9155   -3.9890 C.ar    1  UNL1        0.0128
     30 C          56.5812   91.5317   -2.7001 C.ar    1  UNL1        0.0578
     31 CL         55.3300   90.7047   -2.7185 Cl      1  UNL1       -0.0822
     32 C          57.1680   91.9751   -1.3927 C.ar    1  UNL1        0.0128
     33 C          58.4194   92.8022   -1.3743 C.ar    1  UNL1        0.0208
     34 C          62.6373   93.2900   -4.4271 C.3     1  UNL1        0.0203
     35 C          63.8778   92.7005   -5.0302 C.3     1  UNL1        0.0015
     36 C          65.3163   92.2942   -4.9051 C.3     1  UNL1        0.0000
     37 C          64.5880   92.0858   -6.1997 C.3     1  UNL1        0.0000
@<TRIPOS>BOND
     1    11    12    1
     2    12    13    2
     3    12    14   am
     4    14    15    1
     5    15    16    1
     6    16    17    1
     7    17    18    1
     8    18    19    1
     9    19    20    1
    10    20    21   am
    11    21    22    2
    12    21    10    1
    13    10     7    1
    14     1     7    1
    15     1     2    1
    16     2     3    1
    17     3     4    1
    18     4     5    1
    19     5    34    1
    20    34    35    1
    21    35    36    1
    22    36    37    1
    23     5     6    1
    24     6    24    1
    25    24    25    2
    26    24    26    2
    27    24    27    1
    28    27    28   ar
    29    28    29   ar
    30    29    30   ar
    31    30    31    1
    32    30    32   ar
    33    32    33   ar
    34     7     8    1
    35     8     9    1
    36    20    23    1
    37    18    14    1
    38     9     7    1
    39    23    15    1
    40     6     1    1
    41    33    27   ar
    42    37    35    1
@<TRIPOS>MOLECULE
*****
 37 42 0 0 0
SMALL
GASTEIGER

@<TRIPOS>ATOM
      1 C          61.9265   88.7076   10.7499 C.3     1  UNL1        0.1455
      2 C          61.4425   89.9803   10.1208 C.3     1  UNL1        0.1634
      3 O          60.5681   89.9298    8.9030 O.3     1  UNL1       -0.3507
      4 C          60.1778   88.6064    8.3144 C.3     1  UNL1        0.1598
      5 C          60.6618   87.3337    8.9435 C.3     1  UNL1        0.1093
      6 N          61.5362   87.3842   10.1613 N.3     1  UNL1       -0.1499
      7 C          62.8009   88.7581   11.9678 C.3     1  UNL1        0.1550
      8 C          63.2096   87.3176   12.0548 C.3     1  UNL1        0.0453
      9 C          63.7117   88.3022   13.0689 C.3     1  UNL1        0.0453
     10 O          62.6957   90.2162   12.3036 O.3     1  UNL1       -0.4403
     11 C          63.5816   90.7623   13.1961 C.3     1  UNL1        0.0948
     12 C          64.6814   91.7036   12.8031 C.2     1  UNL1        0.2261
     13 O          64.9972   92.1965   11.4221 O.2     1  UNL1       -0.2749
     14 N          65.6065   92.2540   13.8476 N.am    1  UNL1       -0.2794
     15 C          66.7455   93.1998   13.6066 C.3     1  UNL1        0.0953
     16 C          67.3981   93.4856   14.9266 C.3     1  UNL1        0.0233
     17 C          66.6624   92.7165   15.9835 C.3     1  UNL1        0.0233
     18 C          65.5551   91.9553   15.3167 C.3     1  UNL1        0.0953
     19 C          64.5461   91.3171   14.3927 C.3     1  UNL1        0.1165
     20 N          64.7207   91.7080   12.9550 N.am    1  UNL1       -0.2426
     21 C          63.7955   91.1576   11.9105 C.2     1  UNL1        0.4048
     22 O          64.2478   91.7452   10.6066 O.2     1  UNL1       -0.2262
     23 C          65.8204   92.6493   12.5620 C.3     1  UNL1        0.1165
     24 S          62.0201   86.1115   10.7905 S.O2    1  UNL1        0.0635
     25 O          63.1937   85.7125    9.9458 O.2     1  UNL1       -0.1528
     26 O          60.8804   86.3598   11.7336 O.2     1  UNL1       -0.1528
     27 C          62.5041   84.8387   11.4196 C.ar    1  UNL1        0.1223
     28 C          63.2362   83.8242   10.5922 C.ar    1  UNL1        0.0208
     29 C          63.7201   82.5514   11.2214 C.ar    1  UNL1        0.0128
     30 C          63.4720   82.2932   12.6781 C.ar    1  UNL1        0.0578
     31 CL         63.9559   81.0205   13.3072 Cl      1  UNL1       -0.0822
     32 C          62.7399   83.3078   13.5055 C.ar    1  UNL1        0.0128
     33 C          62.2559   84.5806   12.8762 C.ar    1  UNL1        0.0208
     34 C          60.2715   86.0104    8.3549 C.3     1  UNL1        0.0203
     35 C          61.1840   85.3239    7.3823 C.3     1  UNL1        0.0015
     36 C          61.3836   84.5446    6.1162 C.3     1  UNL1        0.0000
     37 C          62.5648   84.9139    6.9637 C.3     1  UNL1        0.0000
@<TRIPOS>BOND
     1    11    12    1
     2    12    13    2
     3    12    14   am
     4    14    15    1
     5    15    16    1
     6    16    17    1
     7    17    18    1
     8    18    19    1
     9    19    20    1
    10    20    21   am
    11    21    22    2
    12    21    10    1
    13    10     7    1
    14     1     7    1
    15     1     2    1
    16     2     3    1
    17     3     4    1
    18     4     5    1
    19     5    34    1
    20    34    35    1
    21    35    36    1
    22    36    37    1
    23     5     6    1
    24     6    24    1
    25    24    25    2
    26    24    26    2
    27    24    27    1
    28    27    28   ar
    29    28    29   ar
    30    29    30   ar
    31    30    31    1
    32    30    32   ar
    33    32    33   ar
    34     7     8    1
    35     8     9    1
    36    20    23    1
    37    18    14    1
    38     9     7    1
    39    23    15    1
    40     6     1    1
    41    33    27   ar
    42    37    35    1
