@<TRIPOS>MOLECULE
*****
 19 21 0 0 0
SMALL
GASTEIGER

@<TRIPOS>ATOM
      1 C          66.2089   93.8030   11.3443 C.3     1  UNL1        0.0223
      2 C          65.3262   92.6155   11.5908 C.3     1  UNL1        0.0845
      3 C          64.2660   92.2494   10.5949 C.3     1  UNL1        0.0467
      4 C          63.3834   91.0618   10.8414 C.ar    1  UNL1       -0.0153
      5 C          62.3232   90.6957    9.8454 C.ar    1  UNL1        0.0073
      6 C          61.4406   89.5082   10.0920 C.ar    1  UNL1        0.0574
      7 CL         60.3803   89.1421    9.0960 Cl      1  UNL1       -0.0823
      8 C          61.6181   88.6868   11.3345 C.ar    1  UNL1        0.0115
      9 C          62.6783   89.0529   12.3304 C.ar    1  UNL1        0.0051
     10 C          63.5609   90.2404   12.0839 C.ar    1  UNL1        0.0501
     11 C          64.6212   90.6066   13.0798 C.2     1  UNL1        0.2524
     12 O          64.7987   89.7852   14.3223 O.2     1  UNL1       -0.2696
     13 N          65.5038   91.7941   12.8333 N.am    1  UNL1       -0.2550
     14 C          66.5640   92.1602   13.8293 C.ar    1  UNL1        0.0732
     15 C          66.1756   92.7005   15.1736 C.ar    1  UNL1        0.0181
     16 C          67.2358   93.0666   16.1696 C.ar    1  UNL1        0.0220
     17 C          68.6843   92.8925   15.8212 C.ar    1  UNL1        0.0990
     18 N          69.0727   92.3523   14.4768 N.ar    1  UNL1       -0.2410
     19 C          68.0125   91.9861   13.4809 C.ar    1  UNL1        0.1137
@<TRIPOS>BOND
     1     1     2    1
     2     2     3    1
     3     3     4    1
     4     4     5   ar
     5     5     6   ar
     6     6     7    1
     7     6     8   ar
     8     8     9   ar
     9     9    10   ar
    10    10    11    1
    11    11    12    2
    12    11    13   am
    13    13    14    1
    14    14    15   ar
    15    15    16   ar
    16    16    17   ar
    17    17    18   ar
    18    18    19   ar
    19    13     2    1
    20    19    14   ar
    21    10     4   ar
@<TRIPOS>MOLECULE
*****
 19 21 0 0 0
SMALL
GASTEIGER

@<TRIPOS>ATOM
      1 C          63.7489   91.5054    9.9454 C.3     1  UNL1        0.0223
      2 C          64.1276   91.5337   11.3966 C.3     1  UNL1        0.0845
      3 C          65.2731   92.3860   11.8562 C.3     1  UNL1        0.0467
      4 C          65.6518   92.4144   13.3074 C.ar    1  UNL1       -0.0153
      5 C          66.7973   93.2667   13.7671 C.ar    1  UNL1        0.0073
      6 C          67.1760   93.2950   15.2182 C.ar    1  UNL1        0.0574
      7 CL         68.3215   94.1473   15.6780 Cl      1  UNL1       -0.0823
      8 C          66.4091   92.4710   16.2096 C.ar    1  UNL1        0.0115
      9 C          65.2636   91.6187   15.7500 C.ar    1  UNL1        0.0051
     10 C          64.8850   91.5904   14.2989 C.ar    1  UNL1        0.0501
     11 C          63.7394   90.7380   13.8391 C.2     1  UNL1        0.2524
     12 O          62.9725   89.9140   14.8305 O.2     1  UNL1       -0.2696
     13 N          63.3608   90.7097   12.3880 N.am    1  UNL1       -0.2550
     14 C          62.2152   89.8574   11.9282 C.ar    1  UNL1        0.0732
     15 C          60.8488   90.4568   11.7748 C.ar    1  UNL1        0.0181
     16 C          59.7032   89.6046   11.3151 C.ar    1  UNL1        0.0220
     17 C          59.9241   88.1529   11.0088 C.ar    1  UNL1        0.0990
     18 N          61.2906   87.5535   11.1623 N.ar    1  UNL1       -0.2410
     19 C          62.4361   88.4057   11.6220 C.ar    1  UNL1        0.1137
@<TRIPOS>BOND
     1     1     2    1
     2     2     3    1
     3     3     4    1
     4     4     5   ar
     5     5     6   ar
     6     6     7    1
     7     6     8   ar
     8     8     9   ar
     9     9    10   ar
    10    10    11    1
    11    11    12    2
    12    11    13   am
    13    13    14    1
    14    14    15   ar
    15    15    16   ar
    16    16    17   ar
    17    17    18   ar
    18    18    19   ar
    19    13     2    1
    20    19    14   ar
    21    10     4   ar
@<TRIPOS>MOLECULE
*****
 19 21 0 0 0
SMALL
GASTEIGER

@<TRIPOS>ATOM
      1 C          63.9488   92.3653   11.1726 C.3     1  UNL1        0.0223
      2 C          63.5577   90.9288   11.3557 C.3     1  UNL1        0.0845
      3 C          62.8234   90.2066   10.2653 C.3     1  UNL1        0.0467
      4 C          62.4324   88.7700   10.4484 C.ar    1  UNL1       -0.0153
      5 C          61.6981   88.0478    9.3579 C.ar    1  UNL1        0.0073
      6 C          61.3070   86.6113    9.5411 C.ar    1  UNL1        0.0574
      7 CL         60.5727   85.8890    8.4506 Cl      1  UNL1       -0.0823
      8 C          61.6503   85.8970   10.8147 C.ar    1  UNL1        0.0115
      9 C          62.3846   86.6193   11.9051 C.ar    1  UNL1        0.0051
     10 C          62.7756   88.0558   11.7220 C.ar    1  UNL1        0.0501
     11 C          63.5100   88.7781   12.8125 C.2     1  UNL1        0.2524
     12 O          63.8532   88.0639   14.0861 O.2     1  UNL1       -0.2696
     13 N          63.9010   90.2146   12.6293 N.am    1  UNL1       -0.2550
     14 C          64.6353   90.9369   13.7198 C.ar    1  UNL1        0.0732
     15 C          66.0608   91.3559   13.5140 C.ar    1  UNL1        0.0181
     16 C          66.7952   92.0782   14.6044 C.ar    1  UNL1        0.0220
     17 C          66.1040   92.3815   15.9006 C.ar    1  UNL1        0.0990
     18 N          64.6785   91.9625   16.1064 N.ar    1  UNL1       -0.2410
     19 C          63.9442   91.2402   15.0160 C.ar    1  UNL1        0.1137
@<TRIPOS>BOND
     1     1     2    1
     2     2     3    1
     3     3     4    1
     4     4     5   ar
     5     5     6   ar
     6     6     7    1
     7     6     8   ar
     8     8     9   ar
     9     9    10   ar
    10    10    11    1
    11    11    12    2
    12    11    13   am
    13    13    14    1
    14    14    15   ar
    15    15    16   ar
    16    16    17   ar
    17    17    18   ar
    18    18    19   ar
    19    13     2    1
    20    19    14   ar
    21    10     4   ar
@<TRIPOS>MOLECULE
*****
 19 21 0 0 0
SMALL
GASTEIGER

@<TRIPOS>ATOM
      1 C          58.7523   96.1330   -1.8660 C.3     1  UNL1        0.0223
      2 C          59.7408   95.3272   -1.0763 C.3     1  UNL1        0.0845
      3 C          60.8818   96.0106   -0.3826 C.3     1  UNL1        0.0467
      4 C          61.8703   95.2048    0.4072 C.ar    1  UNL1       -0.0153
      5 C          63.0112   95.8881    1.1008 C.ar    1  UNL1        0.0073
      6 C          63.9997   95.0823    1.8905 C.ar    1  UNL1        0.0574
      7 CL         65.1407   95.7656    2.5842 Cl      1  UNL1       -0.0823
      8 C          63.8471   93.5932    1.9866 C.ar    1  UNL1        0.0115
      9 C          62.7062   92.9098    1.2929 C.ar    1  UNL1        0.0051
     10 C          61.7177   93.7156    0.5032 C.ar    1  UNL1        0.0501
     11 C          60.5767   93.0323   -0.1905 C.2     1  UNL1        0.2524
     12 O          60.4242   91.5432   -0.0945 O.2     1  UNL1       -0.2696
     13 N          59.5883   93.8381   -0.9802 N.am    1  UNL1       -0.2550
     14 C          58.4473   93.1548   -1.6739 C.ar    1  UNL1        0.0732
     15 C          58.5846   92.7341   -3.1072 C.ar    1  UNL1        0.0181
     16 C          57.4436   92.0508   -3.8009 C.ar    1  UNL1        0.0220
     17 C          56.1654   91.7882   -3.0614 C.ar    1  UNL1        0.0990
     18 N          56.0280   92.2088   -1.6281 N.ar    1  UNL1       -0.2410
     19 C          57.1690   92.8921   -0.9344 C.ar    1  UNL1        0.1137
@<TRIPOS>BOND
     1     1     2    1
     2     2     3    1
     3     3     4    1
     4     4     5   ar
     5     5     6   ar
     6     6     7    1
     7     6     8   ar
     8     8     9   ar
     9     9    10   ar
    10    10    11    1
    11    11    12    2
    12    11    13   am
    13    13    14    1
    14    14    15   ar
    15    15    16   ar
    16    16    17   ar
    17    17    18   ar
    18    18    19   ar
    19    13     2    1
    20    19    14   ar
    21    10     4   ar
@<TRIPOS>MOLECULE
*****
 19 21 0 0 0
SMALL
GASTEIGER

@<TRIPOS>ATOM
      1 C          59.7434   94.1059   -3.8385 C.3     1  UNL1        0.0223
      2 C          60.3267   93.8865   -2.4740 C.3     1  UNL1        0.0845
      3 C          61.8151   93.8468   -2.2922 C.3     1  UNL1        0.0467
      4 C          62.3984   93.6274   -0.9277 C.ar    1  UNL1       -0.0153
      5 C          63.8868   93.5878   -0.7458 C.ar    1  UNL1        0.0073
      6 C          64.4700   93.3684    0.6186 C.ar    1  UNL1        0.0574
      7 CL         65.9584   93.3287    0.8005 Cl      1  UNL1       -0.0823
      8 C          63.5648   93.1887    1.8011 C.ar    1  UNL1        0.0115
      9 C          62.0765   93.2283    1.6192 C.ar    1  UNL1        0.0051
     10 C          61.4932   93.4477    0.2548 C.ar    1  UNL1        0.0501
     11 C          60.0048   93.4874    0.0729 C.2     1  UNL1        0.2524
     12 O          59.0996   93.3077    1.2555 O.2     1  UNL1       -0.2696
     13 N          59.4216   93.7068   -1.2915 N.am    1  UNL1       -0.2550
     14 C          57.9331   93.7464   -1.4734 C.ar    1  UNL1        0.0732
     15 C          57.2127   95.0621   -1.4759 C.ar    1  UNL1        0.0181
     16 C          55.7243   95.1018   -1.6578 C.ar    1  UNL1        0.0220
     17 C          54.9564   93.8259   -1.8372 C.ar    1  UNL1        0.0990
     18 N          55.6768   92.5102   -1.8348 N.ar    1  UNL1       -0.2410
     19 C          57.1652   92.4705   -1.6529 C.ar    1  UNL1        0.1137
@<TRIPOS>BOND
     1     1     2    1
     2     2     3    1
     3     3     4    1
     4     4     5   ar
     5     5     6   ar
     6     6     7    1
     7     6     8   ar
     8     8     9   ar
     9     9    10   ar
    10    10    11    1
    11    11    12    2
    12    11    13   am
    13    13    14    1
    14    14    15   ar
    15    15    16   ar
    16    16    17   ar
    17    17    18   ar
    18    18    19   ar
    19    13     2    1
    20    19    14   ar
    21    10     4   ar
@<TRIPOS>MOLECULE
*****
 19 21 0 0 0
SMALL
GASTEIGER

@<TRIPOS>ATOM
      1 C          47.9853   80.1964   18.4995 C.3     1  UNL1        0.0223
      2 C          47.1899   78.9392   18.3072 C.3     1  UNL1        0.0845
      3 C          47.7025   77.6373   18.8478 C.3     1  UNL1        0.0467
      4 C          46.9071   76.3801   18.6555 C.ar    1  UNL1       -0.0153
      5 C          47.4197   75.0782   19.1961 C.ar    1  UNL1        0.0073
      6 C          46.6243   73.8212   19.0038 C.ar    1  UNL1        0.0574
      7 CL         47.1369   72.5192   19.5444 Cl      1  UNL1       -0.0823
      8 C          45.3163   73.8660   18.2709 C.ar    1  UNL1        0.0115
      9 C          44.8037   75.1679   17.7304 C.ar    1  UNL1        0.0051
     10 C          45.5991   76.4249   17.9227 C.ar    1  UNL1        0.0501
     11 C          45.0865   77.7269   17.3821 C.2     1  UNL1        0.2524
     12 O          43.7784   77.7717   16.6492 O.2     1  UNL1       -0.2696
     13 N          45.8819   78.9840   17.5744 N.am    1  UNL1       -0.2550
     14 C          45.3693   80.2860   17.0338 C.ar    1  UNL1        0.0732
     15 C          45.7001   80.6974   15.6298 C.ar    1  UNL1        0.0181
     16 C          45.1876   81.9993   15.0892 C.ar    1  UNL1        0.0220
     17 C          44.3442   82.8898   15.9526 C.ar    1  UNL1        0.0990
     18 N          44.0133   82.4784   17.3566 N.ar    1  UNL1       -0.2410
     19 C          44.5258   81.1765   17.8972 C.ar    1  UNL1        0.1137
@<TRIPOS>BOND
     1     1     2    1
     2     2     3    1
     3     3     4    1
     4     4     5   ar
     5     5     6   ar
     6     6     7    1
     7     6     8   ar
     8     8     9   ar
     9     9    10   ar
    10    10    11    1
    11    11    12    2
    12    11    13   am
    13    13    14    1
    14    14    15   ar
    15    15    16   ar
    16    16    17   ar
    17    17    18   ar
    18    18    19   ar
    19    13     2    1
    20    19    14   ar
    21    10     4   ar
@<TRIPOS>MOLECULE
*****
 19 21 0 0 0
SMALL
GASTEIGER

@<TRIPOS>ATOM
      1 C          71.7703   74.4167   12.4781 C.3     1  UNL1        0.0223
      2 C          71.6049   73.4050   13.5733 C.3     1  UNL1        0.0845
      3 C          71.6207   73.8433   15.0077 C.3     1  UNL1        0.0467
      4 C          71.4553   72.8317   16.1029 C.ar    1  UNL1       -0.0153
      5 C          71.4712   73.2699   17.5373 C.ar    1  UNL1        0.0073
      6 C          71.3058   72.2584   18.6324 C.ar    1  UNL1        0.0574
      7 CL         71.3217   72.6966   20.0669 Cl      1  UNL1       -0.0823
      8 C          71.1246   70.8085   18.2931 C.ar    1  UNL1        0.0115
      9 C          71.1087   70.3703   16.8587 C.ar    1  UNL1        0.0051
     10 C          71.2741   71.3819   15.7636 C.ar    1  UNL1        0.0501
     11 C          71.2582   70.9436   14.3290 C.2     1  UNL1        0.2524
     12 O          71.0770   69.4938   13.9897 O.2     1  UNL1       -0.2696
     13 N          71.4236   71.9552   13.2339 N.am    1  UNL1       -0.2550
     14 C          71.4077   71.5170   11.7994 C.ar    1  UNL1        0.0732
     15 C          72.6854   71.4722   11.0147 C.ar    1  UNL1        0.0181
     16 C          72.6695   71.0340    9.5803 C.ar    1  UNL1        0.0220
     17 C          71.3761   70.6406    8.9305 C.ar    1  UNL1        0.0990
     18 N          70.0985   70.6854    9.7152 N.ar    1  UNL1       -0.2410
     19 C          70.1143   71.1236   11.1496 C.ar    1  UNL1        0.1137
@<TRIPOS>BOND
     1     1     2    1
     2     2     3    1
     3     3     4    1
     4     4     5   ar
     5     5     6   ar
     6     6     7    1
     7     6     8   ar
     8     8     9   ar
     9     9    10   ar
    10    10    11    1
    11    11    12    2
    12    11    13   am
    13    13    14    1
    14    14    15   ar
    15    15    16   ar
    16    16    17   ar
    17    17    18   ar
    18    18    19   ar
    19    13     2    1
    20    19    14   ar
    21    10     4   ar
@<TRIPOS>MOLECULE
*****
 19 21 0 0 0
SMALL
GASTEIGER

@<TRIPOS>ATOM
      1 C          61.2014   96.8446    0.4368 C.3     1  UNL1        0.0223
      2 C          60.1957   95.8201    0.0021 C.3     1  UNL1        0.0845
      3 C          58.8190   96.2487   -0.4112 C.3     1  UNL1        0.0467
      4 C          57.8132   95.2242   -0.8459 C.ar    1  UNL1       -0.0153
      5 C          56.4365   95.6529   -1.2591 C.ar    1  UNL1        0.0073
      6 C          55.4309   94.6283   -1.6938 C.ar    1  UNL1        0.0574
      7 CL         54.0541   95.0570   -2.1071 Cl      1  UNL1       -0.0823
      8 C          55.8020   93.1751   -1.7152 C.ar    1  UNL1        0.0115
      9 C          57.1787   92.7464   -1.3019 C.ar    1  UNL1        0.0051
     10 C          58.1843   93.7710   -0.8672 C.ar    1  UNL1        0.0501
     11 C          59.5611   93.3423   -0.4539 C.2     1  UNL1        0.2524
     12 O          59.9322   91.8891   -0.4753 O.2     1  UNL1       -0.2696
     13 N          60.5668   94.3669   -0.0193 N.am    1  UNL1       -0.2550
     14 C          61.9436   93.9382    0.3941 C.ar    1  UNL1        0.0732
     15 C          62.1829   93.4201    1.7812 C.ar    1  UNL1        0.0181
     16 C          63.5596   92.9914    2.1946 C.ar    1  UNL1        0.0220
     17 C          64.6970   93.0809    1.2207 C.ar    1  UNL1        0.0990
     18 N          64.4576   93.5991   -0.1664 N.ar    1  UNL1       -0.2410
     19 C          63.0809   94.0277   -0.5798 C.ar    1  UNL1        0.1137
@<TRIPOS>BOND
     1     1     2    1
     2     2     3    1
     3     3     4    1
     4     4     5   ar
     5     5     6   ar
     6     6     7    1
     7     6     8   ar
     8     8     9   ar
     9     9    10   ar
    10    10    11    1
    11    11    12    2
    12    11    13   am
    13    13    14    1
    14    14    15   ar
    15    15    16   ar
    16    16    17   ar
    17    17    18   ar
    18    18    19   ar
    19    13     2    1
    20    19    14   ar
    21    10     4   ar
@<TRIPOS>MOLECULE
*****
 19 21 0 0 0
SMALL
GASTEIGER

@<TRIPOS>ATOM
      1 C          60.4331   93.2423    2.6521 C.3     1  UNL1        0.0223
      2 C          60.2120   93.3460    1.1721 C.3     1  UNL1        0.0845
      3 C          58.9579   92.7952    0.5607 C.3     1  UNL1        0.0467
      4 C          58.7368   92.8989   -0.9193 C.ar    1  UNL1       -0.0153
      5 C          57.4827   92.3481   -1.5307 C.ar    1  UNL1        0.0073
      6 C          57.2617   92.4518   -3.0107 C.ar    1  UNL1        0.0574
      7 CL         56.0076   91.9010   -3.6221 Cl      1  UNL1       -0.0823
      8 C          58.2947   93.1064   -3.8792 C.ar    1  UNL1        0.0115
      9 C          59.5488   93.6572   -3.2679 C.ar    1  UNL1        0.0051
     10 C          59.7699   93.5534   -1.7879 C.ar    1  UNL1        0.0501
     11 C          61.0240   94.1043   -1.1764 C.2     1  UNL1        0.2524
     12 O          62.0570   94.7588   -2.0450 O.2     1  UNL1       -0.2696
     13 N          61.2451   94.0005    0.3035 N.am    1  UNL1       -0.2550
     14 C          62.4992   94.5514    0.9150 C.ar    1  UNL1        0.0732
     15 C          63.7233   93.6907    1.0195 C.ar    1  UNL1        0.0181
     16 C          64.9774   94.2414    1.6309 C.ar    1  UNL1        0.0220
     17 C          65.0074   95.6528    2.1378 C.ar    1  UNL1        0.0990
     18 N          63.7833   96.5135    2.0333 N.ar    1  UNL1       -0.2410
     19 C          62.5292   95.9628    1.4218 C.ar    1  UNL1        0.1137
@<TRIPOS>BOND
     1     1     2    1
     2     2     3    1
     3     3     4    1
     4     4     5   ar
     5     5     6   ar
     6     6     7    1
     7     6     8   ar
     8     8     9   ar
     9     9    10   ar
    10    10    11    1
    11    11    12    2
    12    11    13   am
    13    13    14    1
    14    14    15   ar
    15    15    16   ar
    16    16    17   ar
    17    17    18   ar
    18    18    19   ar
    19    13     2    1
    20    19    14   ar
    21    10     4   ar
