@<TRIPOS>MOLECULE
*****
 25 27 0 0 0
SMALL
GASTEIGER

@<TRIPOS>ATOM
      1 C          63.8423   86.3701   13.3846 C.3     1  UNL1        0.1394
      2 N          63.0372   87.1346   12.3758 N.pl3   1  UNL1       -0.1814
      3 C          63.0100   88.6338   12.4185 C.2     1  UNL1        0.1558
      4 C          62.2050   89.3982   11.4098 C.2     1  UNL1        0.1541
      5 O          62.1778   90.8974   11.4524 O.2     1  UNL1       -0.5040
      6 C          61.4271   88.6636   10.3584 C.ar    1  UNL1        0.0540
      7 C          60.6221   89.4280    9.3498 C.ar    1  UNL1        0.0044
      8 C          59.8443   88.6934    8.2985 C.ar    1  UNL1        0.0002
      9 C          59.8715   87.1942    8.2559 C.ar    1  UNL1        0.0014
     10 C          60.6765   86.4298    9.2645 C.ar    1  UNL1        0.0203
     11 C          61.4543   87.1644   10.3158 C.ar    1  UNL1        0.1283
     12 S          62.2594   86.3999   11.3246 S.O2    1  UNL1        0.0769
     13 O          61.6928   85.2626   10.5274 O.2     1  UNL1       -0.1497
     14 O          62.8677   85.2404   12.0564 O.2     1  UNL1       -0.1497
     15 H          62.6637   91.3563   12.1091 H       1  UNL1        0.2923
     16 C          63.7879   89.3684   13.4698 C.2     1  UNL1        0.2685
     17 O          63.7146   88.9280   14.9018 O.2     1  UNL1       -0.2683
     18 N          64.6389   90.5435   13.0891 N.am    1  UNL1       -0.2647
     19 H          64.6870   90.8325   12.1493 H       1  UNL1        0.1566
     20 C          65.4167   91.2781   14.1405 C.ar    1  UNL1        0.1344
     21 C          66.8924   91.4880   13.9721 C.ar    1  UNL1        0.0345
     22 C          67.6702   92.2226   15.0235 C.ar    1  UNL1        0.0045
     23 C          66.9724   92.7473   16.2432 C.ar    1  UNL1        0.0208
     24 C          65.4968   92.5374   16.4116 C.ar    1  UNL1        0.1003
     25 N          64.7189   91.8028   15.3602 N.ar    1  UNL1       -0.2290
@<TRIPOS>BOND
     1     1     2    1
     2     2     3    1
     3     3    16    1
     4    16    17    2
     5    16    18   am
     6    18    20    1
     7    20    21   ar
     8    21    22   ar
     9    22    23   ar
    10    23    24   ar
    11    24    25   ar
    12     3     4    2
    13     4     5    1
    14     4     6    1
    15     6     7   ar
    16     7     8   ar
    17     8     9   ar
    18     9    10   ar
    19    10    11   ar
    20    11    12    1
    21    12    13    2
    22    12    14    2
    23    12     2    1
    24    25    20   ar
    25    11     6   ar
    26    18    19    1
    27     5    15    1
@<TRIPOS>MOLECULE
*****
 25 27 0 0 0
SMALL
GASTEIGER

@<TRIPOS>ATOM
      1 C          64.0920   91.9457    9.9259 C.3     1  UNL1        0.1394
      2 N          64.4100   91.8464   11.3885 N.pl3   1  UNL1       -0.1814
      3 C          63.6630   90.8755   12.2542 C.2     1  UNL1        0.1558
      4 C          63.9810   90.7763   13.7167 C.2     1  UNL1        0.1541
      5 O          63.2340   89.8054   14.5824 O.2     1  UNL1       -0.5040
      6 C          65.0459   91.6479   14.3136 C.ar    1  UNL1        0.0540
      7 C          65.3639   91.5486   15.7761 C.ar    1  UNL1        0.0044
      8 C          66.4288   92.4202   16.3729 C.ar    1  UNL1        0.0002
      9 C          67.1757   93.3911   15.5072 C.ar    1  UNL1        0.0014
     10 C          66.8578   93.4904   14.0447 C.ar    1  UNL1        0.0203
     11 C          65.7929   92.6188   13.4479 C.ar    1  UNL1        0.1283
     12 S          65.4749   92.7181   11.9853 S.O2    1  UNL1        0.0769
     13 O          66.5603   93.7485   12.0864 O.2     1  UNL1       -0.1497
     14 O          65.5339   93.1752   10.5578 O.2     1  UNL1       -0.1497
     15 H          62.5688   89.2609   14.2096 H       1  UNL1        0.2923
     16 C          62.5981   90.0039   11.6573 C.2     1  UNL1        0.2685
     17 O          61.3347   89.7346   12.4198 O.2     1  UNL1       -0.2683
     18 N          62.7965   89.4017   10.2979 N.am    1  UNL1       -0.2647
     19 H          63.6257   89.5784    9.7975 H       1  UNL1        0.1566
     20 C          61.7316   88.5301    9.7011 C.ar    1  UNL1        0.1344
     21 C          61.8334   87.0377    9.8137 C.ar    1  UNL1        0.0345
     22 C          60.7685   86.1662    9.2169 C.ar    1  UNL1        0.0045
     23 C          59.6017   86.7868    8.5075 C.ar    1  UNL1        0.0208
     24 C          59.4998   88.2791    8.3948 C.ar    1  UNL1        0.1003
     25 N          60.5648   89.1508    8.9917 N.ar    1  UNL1       -0.2290
@<TRIPOS>BOND
     1     1     2    1
     2     2     3    1
     3     3    16    1
     4    16    17    2
     5    16    18   am
     6    18    20    1
     7    20    21   ar
     8    21    22   ar
     9    22    23   ar
    10    23    24   ar
    11    24    25   ar
    12     3     4    2
    13     4     5    1
    14     4     6    1
    15     6     7   ar
    16     7     8   ar
    17     8     9   ar
    18     9    10   ar
    19    10    11   ar
    20    11    12    1
    21    12    13    2
    22    12    14    2
    23    12     2    1
    24    25    20   ar
    25    11     6   ar
    26    18    19    1
    27     5    15    1
@<TRIPOS>MOLECULE
*****
 25 27 0 0 0
SMALL
GASTEIGER

@<TRIPOS>ATOM
      1 C          62.6018   84.5138   15.2383 C.3     1  UNL1        0.1394
      2 N          62.7338   83.7286   13.9669 N.pl3   1  UNL1       -0.1814
      3 C          63.0189   84.4356   12.6750 C.2     1  UNL1        0.1558
      4 C          63.1508   83.6506   11.4037 C.2     1  UNL1        0.1541
      5 O          63.4359   84.3575   10.1119 O.2     1  UNL1       -0.5040
      6 C          62.9978   82.1585   11.4243 C.ar    1  UNL1        0.0540
      7 C          63.1297   81.3735   10.1530 C.ar    1  UNL1        0.0044
      8 C          62.9766   79.8815   10.1735 C.ar    1  UNL1        0.0002
      9 C          62.6916   79.1745   11.4654 C.ar    1  UNL1        0.0014
     10 C          62.5596   79.9595   12.7367 C.ar    1  UNL1        0.0203
     11 C          62.7127   81.4515   12.7161 C.ar    1  UNL1        0.1283
     12 S          62.5807   82.2366   13.9875 S.O2    1  UNL1        0.0769
     13 O          62.3545   80.8500   14.5130 O.2     1  UNL1       -0.1497
     14 O          62.3702   82.5401   15.4413 O.2     1  UNL1       -0.1497
     15 H          63.5315   85.2896   10.0990 H       1  UNL1        0.2923
     16 C          63.1719   85.9277   12.6545 C.2     1  UNL1        0.2685
     17 O          63.9706   86.6144   13.7224 O.2     1  UNL1       -0.2683
     18 N          62.5263   86.7329   11.5661 N.am    1  UNL1       -0.2647
     19 H          62.0021   86.2822   10.8652 H       1  UNL1        0.1566
     20 C          62.6794   88.2249   11.5456 C.ar    1  UNL1        0.1344
     21 C          62.3495   88.9958   10.3018 C.ar    1  UNL1        0.0345
     22 C          62.5026   90.4878   10.2813 C.ar    1  UNL1        0.0045
     23 C          62.9856   91.2090   11.5046 C.ar    1  UNL1        0.0208
     24 C          63.3155   90.4383   12.7484 C.ar    1  UNL1        0.1003
     25 N          63.1624   88.9462   12.7689 N.ar    1  UNL1       -0.2290
@<TRIPOS>BOND
     1     1     2    1
     2     2     3    1
     3     3    16    1
     4    16    17    2
     5    16    18   am
     6    18    20    1
     7    20    21   ar
     8    21    22   ar
     9    22    23   ar
    10    23    24   ar
    11    24    25   ar
    12     3     4    2
    13     4     5    1
    14     4     6    1
    15     6     7   ar
    16     7     8   ar
    17     8     9   ar
    18     9    10   ar
    19    10    11   ar
    20    11    12    1
    21    12    13    2
    22    12    14    2
    23    12     2    1
    24    25    20   ar
    25    11     6   ar
    26    18    19    1
    27     5    15    1
@<TRIPOS>MOLECULE
*****
 25 27 0 0 0
SMALL
GASTEIGER

@<TRIPOS>ATOM
      1 C          61.8181   88.1756    9.9304 C.3     1  UNL1        0.1394
      2 N          62.6469   88.7547   11.0385 N.pl3   1  UNL1       -0.1814
      3 C          62.9992   87.9139   12.2297 C.2     1  UNL1        0.1558
      4 C          63.8280   88.4930   13.3377 C.2     1  UNL1        0.1541
      5 O          64.1803   87.6522   14.5289 O.2     1  UNL1       -0.5040
      6 C          64.3045   89.9129   13.2546 C.ar    1  UNL1        0.0540
      7 C          65.1333   90.4920   14.3626 C.ar    1  UNL1        0.0044
      8 C          65.6097   91.9119   14.2794 C.ar    1  UNL1        0.0002
      9 C          65.2574   92.7526   13.0882 C.ar    1  UNL1        0.0014
     10 C          64.4286   92.1736   11.9802 C.ar    1  UNL1        0.0203
     11 C          63.9522   90.7537   12.0634 C.ar    1  UNL1        0.1283
     12 S          63.1234   90.1746   10.9553 S.O2    1  UNL1        0.0769
     13 O          63.3379   91.5605   10.4231 O.2     1  UNL1       -0.1497
     14 O          62.3690   90.0768    9.6624 O.2     1  UNL1       -0.1497
     15 H          63.8827   86.7653   14.5809 H       1  UNL1        0.2923
     16 C          62.5227   86.4940   12.3128 C.2     1  UNL1        0.2685
     17 O          61.1726   86.1233   11.7745 O.2     1  UNL1       -0.2683
     18 N          63.3963   85.4449   12.9342 N.am    1  UNL1       -0.2647
     19 H          64.2825   85.6883   13.2876 H       1  UNL1        0.1566
     20 C          62.9198   84.0251   13.0174 C.ar    1  UNL1        0.1344
     21 C          63.0161   83.1302   11.8173 C.ar    1  UNL1        0.0345
     22 C          62.5395   81.7103   11.9004 C.ar    1  UNL1        0.0045
     23 C          61.9668   81.1853   13.1835 C.ar    1  UNL1        0.0208
     24 C          61.8705   82.0801   14.3835 C.ar    1  UNL1        0.1003
     25 N          62.3471   83.5001   14.3004 N.ar    1  UNL1       -0.2290
@<TRIPOS>BOND
     1     1     2    1
     2     2     3    1
     3     3    16    1
     4    16    17    2
     5    16    18   am
     6    18    20    1
     7    20    21   ar
     8    21    22   ar
     9    22    23   ar
    10    23    24   ar
    11    24    25   ar
    12     3     4    2
    13     4     5    1
    14     4     6    1
    15     6     7   ar
    16     7     8   ar
    17     8     9   ar
    18     9    10   ar
    19    10    11   ar
    20    11    12    1
    21    12    13    2
    22    12    14    2
    23    12     2    1
    24    25    20   ar
    25    11     6   ar
    26    18    19    1
    27     5    15    1
@<TRIPOS>MOLECULE
*****
 25 27 0 0 0
SMALL
GASTEIGER

@<TRIPOS>ATOM
      1 C          62.7439   88.1145   11.8518 C.3     1  UNL1        0.1394
      2 N          63.0433   86.7562   12.4134 N.pl3   1  UNL1       -0.1814
      3 C          63.6518   86.6264   13.7783 C.2     1  UNL1        0.1558
      4 C          63.9512   85.2682   14.3400 C.2     1  UNL1        0.1541
      5 O          64.5597   85.1384   15.7048 O.2     1  UNL1       -0.5040
      6 C          63.6421   84.0396   13.5367 C.ar    1  UNL1        0.0540
      7 C          63.9414   82.6814   14.0984 C.ar    1  UNL1        0.0044
      8 C          63.6323   81.4529   13.2952 C.ar    1  UNL1        0.0002
      9 C          63.0238   81.5826   11.9303 C.ar    1  UNL1        0.0014
     10 C          62.7244   82.9409   11.3687 C.ar    1  UNL1        0.0203
     11 C          63.0335   84.1693   12.1719 C.ar    1  UNL1        0.1283
     12 S          62.7341   85.5277   11.6102 S.O2    1  UNL1        0.0769
     13 O          62.2644   84.6671   10.4750 O.2     1  UNL1       -0.1497
     14 O          62.2716   86.5871   10.6543 O.2     1  UNL1       -0.1497
     15 H          64.7528   85.9059   16.2066 H       1  UNL1        0.2923
     16 C          63.9609   87.8550   14.5815 C.2     1  UNL1        0.2685
     17 O          63.6434   87.8925   16.0470 O.2     1  UNL1       -0.2683
     18 N          64.5876   89.0461   13.9192 N.am    1  UNL1       -0.2647
     19 H          64.7959   89.0215   12.9573 H       1  UNL1        0.1566
     20 C          64.8967   90.2746   14.7224 C.ar    1  UNL1        0.1344
     21 C          66.1801   91.0167   14.4941 C.ar    1  UNL1        0.0345
     22 C          66.4892   92.2452   15.2973 C.ar    1  UNL1        0.0045
     23 C          65.5149   92.7316   16.3289 C.ar    1  UNL1        0.0208
     24 C          64.2315   91.9896   16.5572 C.ar    1  UNL1        0.1003
     25 N          63.9223   90.7610   15.7539 N.ar    1  UNL1       -0.2290
@<TRIPOS>BOND
     1     1     2    1
     2     2     3    1
     3     3    16    1
     4    16    17    2
     5    16    18   am
     6    18    20    1
     7    20    21   ar
     8    21    22   ar
     9    22    23   ar
    10    23    24   ar
    11    24    25   ar
    12     3     4    2
    13     4     5    1
    14     4     6    1
    15     6     7   ar
    16     7     8   ar
    17     8     9   ar
    18     9    10   ar
    19    10    11   ar
    20    11    12    1
    21    12    13    2
    22    12    14    2
    23    12     2    1
    24    25    20   ar
    25    11     6   ar
    26    18    19    1
    27     5    15    1
@<TRIPOS>MOLECULE
*****
 25 27 0 0 0
SMALL
GASTEIGER

@<TRIPOS>ATOM
      1 C          63.1186   91.5741   11.3618 C.3     1  UNL1        0.1394
      2 N          63.1077   90.1167   11.7170 N.pl3   1  UNL1       -0.1814
      3 C          63.8560   89.6333   12.9237 C.2     1  UNL1        0.1558
      4 C          63.8451   88.1760   13.2790 C.2     1  UNL1        0.1541
      5 O          64.5934   87.6926   14.4858 O.2     1  UNL1       -0.5040
      6 C          63.0858   87.2021   12.4274 C.ar    1  UNL1        0.0540
      7 C          63.0748   85.7449   12.7827 C.ar    1  UNL1        0.0044
      8 C          62.3156   84.7711   11.9312 C.ar    1  UNL1        0.0002
      9 C          61.5672   85.2545   10.7244 C.ar    1  UNL1        0.0014
     10 C          61.5782   86.7117   10.3692 C.ar    1  UNL1        0.0203
     11 C          62.3374   87.6856   11.2207 C.ar    1  UNL1        0.1283
     12 S          62.3484   89.1429   10.8655 S.O2    1  UNL1        0.0769
     13 O          61.4893   88.6110    9.7568 O.2     1  UNL1       -0.1497
     14 O          62.0610   90.4155   10.1252 O.2     1  UNL1       -0.1497
     15 H          65.0677   88.3010   15.0177 H       1  UNL1        0.2923
     16 C          64.6153   90.6072   13.7753 C.2     1  UNL1        0.2685
     17 O          63.9645   91.2137   14.9831 O.2     1  UNL1       -0.2683
     18 N          66.0253   90.9746   13.4190 N.am    1  UNL1       -0.2647
     19 H          66.4524   90.5766   12.6263 H       1  UNL1        0.1566
     20 C          66.7845   91.9485   14.2705 C.ar    1  UNL1        0.1344
     21 C          67.6964   91.4478   15.3512 C.ar    1  UNL1        0.0345
     22 C          68.4556   92.4217   16.2028 C.ar    1  UNL1        0.0045
     23 C          68.3030   93.8962   15.9737 C.ar    1  UNL1        0.0208
     24 C          67.3911   94.3969   14.8930 C.ar    1  UNL1        0.1003
     25 N          66.6318   93.4230   14.0415 N.ar    1  UNL1       -0.2290
@<TRIPOS>BOND
     1     1     2    1
     2     2     3    1
     3     3    16    1
     4    16    17    2
     5    16    18   am
     6    18    20    1
     7    20    21   ar
     8    21    22   ar
     9    22    23   ar
    10    23    24   ar
    11    24    25   ar
    12     3     4    2
    13     4     5    1
    14     4     6    1
    15     6     7   ar
    16     7     8   ar
    17     8     9   ar
    18     9    10   ar
    19    10    11   ar
    20    11    12    1
    21    12    13    2
    22    12    14    2
    23    12     2    1
    24    25    20   ar
    25    11     6   ar
    26    18    19    1
    27     5    15    1
@<TRIPOS>MOLECULE
*****
 25 27 0 0 0
SMALL
GASTEIGER

@<TRIPOS>ATOM
      1 C          65.4349   91.5083   16.3214 C.3     1  UNL1        0.1394
      2 N          65.3278   91.8064   14.8552 N.pl3   1  UNL1       -0.1814
      3 C          64.5416   90.8951   13.9600 C.2     1  UNL1        0.1558
      4 C          64.4345   91.1932   12.4939 C.2     1  UNL1        0.1541
      5 O          63.6483   90.2818   11.5987 O.2     1  UNL1       -0.5040
      6 C          65.1136   92.4027   11.9229 C.ar    1  UNL1        0.0540
      7 C          65.0064   92.7008   10.4567 C.ar    1  UNL1        0.0044
      8 C          65.6855   93.9102    9.8858 C.ar    1  UNL1        0.0002
      9 C          66.4717   94.8216   10.7809 C.ar    1  UNL1        0.0014
     10 C          66.5788   94.5235   12.2471 C.ar    1  UNL1        0.0203
     11 C          65.8997   93.3140   12.8180 C.ar    1  UNL1        0.1283
     12 S          66.0069   93.0159   14.2843 S.O2    1  UNL1        0.0769
     13 O          66.8214   94.2736   14.2140 O.2     1  UNL1       -0.1497
     14 O          66.3969   93.1545   15.7260 O.2     1  UNL1       -0.1497
     15 H          63.2241   89.5263   11.9554 H       1  UNL1        0.2923
     16 C          63.8626   89.6855   14.5311 C.2     1  UNL1        0.2685
     17 O          62.4271   89.7635   14.9592 O.2     1  UNL1       -0.2683
     18 N          64.6190   88.3982   14.6740 N.am    1  UNL1       -0.2647
     19 H          65.5612   88.3470   14.3931 H       1  UNL1        0.1566
     20 C          63.9399   87.1888   15.2451 C.ar    1  UNL1        0.1344
     21 C          63.9872   85.8836   14.5072 C.ar    1  UNL1        0.0345
     22 C          63.3082   84.6742   15.0782 C.ar    1  UNL1        0.0045
     23 C          62.5818   84.7698   16.3871 C.ar    1  UNL1        0.0208
     24 C          62.5345   86.0749   17.1250 C.ar    1  UNL1        0.1003
     25 N          63.2136   87.2844   16.5540 N.ar    1  UNL1       -0.2290
@<TRIPOS>BOND
     1     1     2    1
     2     2     3    1
     3     3    16    1
     4    16    17    2
     5    16    18   am
     6    18    20    1
     7    20    21   ar
     8    21    22   ar
     9    22    23   ar
    10    23    24   ar
    11    24    25   ar
    12     3     4    2
    13     4     5    1
    14     4     6    1
    15     6     7   ar
    16     7     8   ar
    17     8     9   ar
    18     9    10   ar
    19    10    11   ar
    20    11    12    1
    21    12    13    2
    22    12    14    2
    23    12     2    1
    24    25    20   ar
    25    11     6   ar
    26    18    19    1
    27     5    15    1
@<TRIPOS>MOLECULE
*****
 25 27 0 0 0
SMALL
GASTEIGER

@<TRIPOS>ATOM
      1 C          60.7185   91.2749   11.1813 C.3     1  UNL1        0.1394
      2 N          61.1078   89.8679   10.8364 N.pl3   1  UNL1       -0.1814
      3 C          62.0846   89.1268   11.7004 C.2     1  UNL1        0.1558
      4 C          62.4739   87.7199   11.3555 C.2     1  UNL1        0.1541
      5 O          63.4507   86.9787   12.2196 O.2     1  UNL1       -0.5040
      6 C          61.8863   87.0540   10.1466 C.ar    1  UNL1        0.0540
      7 C          62.2756   85.6470    9.8018 C.ar    1  UNL1        0.0044
      8 C          61.6881   84.9812    8.5929 C.ar    1  UNL1        0.0002
      9 C          60.7112   85.7223    7.7289 C.ar    1  UNL1        0.0014
     10 C          60.3219   87.1293    8.0737 C.ar    1  UNL1        0.0203
     11 C          60.9095   87.7951    9.2826 C.ar    1  UNL1        0.1283
     12 S          60.5202   89.2021    9.6275 S.O2    1  UNL1        0.0769
     13 O          59.6983   89.0006    8.3890 O.2     1  UNL1       -0.1497
     14 O          59.8455   90.5391    9.5422 O.2     1  UNL1       -0.1497
     15 H          63.8178   87.3947   12.9747 H       1  UNL1        0.2923
     16 C          62.6722   89.7927   12.9093 C.2     1  UNL1        0.2685
     17 O          61.9335   89.7644   14.2145 O.2     1  UNL1       -0.2683
     18 N          63.9984   90.4868   12.8130 N.am    1  UNL1       -0.2647
     19 H          64.4832   90.5054   11.9564 H       1  UNL1        0.1566
     20 C          64.5859   91.1527   14.0219 C.ar    1  UNL1        0.1344
     21 C          65.9968   91.6608   13.9870 C.ar    1  UNL1        0.0345
     22 C          66.5843   92.3266   15.1959 C.ar    1  UNL1        0.0045
     23 C          65.7609   92.4844   16.4397 C.ar    1  UNL1        0.0208
     24 C          64.3501   91.9764   16.4747 C.ar    1  UNL1        0.1003
     25 N          63.7625   91.3105   15.2657 N.ar    1  UNL1       -0.2290
@<TRIPOS>BOND
     1     1     2    1
     2     2     3    1
     3     3    16    1
     4    16    17    2
     5    16    18   am
     6    18    20    1
     7    20    21   ar
     8    21    22   ar
     9    22    23   ar
    10    23    24   ar
    11    24    25   ar
    12     3     4    2
    13     4     5    1
    14     4     6    1
    15     6     7   ar
    16     7     8   ar
    17     8     9   ar
    18     9    10   ar
    19    10    11   ar
    20    11    12    1
    21    12    13    2
    22    12    14    2
    23    12     2    1
    24    25    20   ar
    25    11     6   ar
    26    18    19    1
    27     5    15    1
@<TRIPOS>MOLECULE
*****
 25 27 0 0 0
SMALL
GASTEIGER

@<TRIPOS>ATOM
      1 C          64.3431   86.0824   14.1934 C.3     1  UNL1        0.1394
      2 N          63.5687   86.7083   13.0714 N.pl3   1  UNL1       -0.1814
      3 C          63.6047   88.1947   12.8730 C.2     1  UNL1        0.1558
      4 C          62.8304   88.8205   11.7511 C.2     1  UNL1        0.1541
      5 O          62.8663   90.3069   11.5527 O.2     1  UNL1       -0.5040
      6 C          62.0201   87.9600   10.8274 C.ar    1  UNL1        0.0540
      7 C          61.2459   88.5858    9.7055 C.ar    1  UNL1        0.0044
      8 C          60.4357   87.7253    8.7819 C.ar    1  UNL1        0.0002
      9 C          60.3998   86.2389    8.9803 C.ar    1  UNL1        0.0014
     10 C          61.1740   85.6130   10.1023 C.ar    1  UNL1        0.0203
     11 C          61.9842   86.4736   11.0258 C.ar    1  UNL1        0.1283
     12 S          62.7585   85.8477   12.1478 S.O2    1  UNL1        0.0769
     13 O          62.1430   84.6220   11.5407 O.2     1  UNL1       -0.1497
     14 O          63.3191   84.7962   13.0589 O.2     1  UNL1       -0.1497
     15 H          63.3724   90.8445   12.1296 H       1  UNL1        0.2923
     16 C          64.4149   89.0552   13.7967 C.2     1  UNL1        0.2685
     17 O          64.8915   88.5058   15.1085 O.2     1  UNL1       -0.2683
     18 N          64.7485   90.4651   13.4084 N.am    1  UNL1       -0.2647
     19 H          64.4357   90.8258   12.5474 H       1  UNL1        0.1566
     20 C          65.5587   91.3256   14.3320 C.ar    1  UNL1        0.1344
     21 C          65.0072   91.7143   15.6718 C.ar    1  UNL1        0.0345
     22 C          65.8174   92.5748   16.5954 C.ar    1  UNL1        0.0045
     23 C          67.1791   93.0466   16.1794 C.ar    1  UNL1        0.0208
     24 C          67.7307   92.6579   14.8397 C.ar    1  UNL1        0.1003
     25 N          66.9205   91.7974   13.9160 N.ar    1  UNL1       -0.2290
@<TRIPOS>BOND
     1     1     2    1
     2     2     3    1
     3     3    16    1
     4    16    17    2
     5    16    18   am
     6    18    20    1
     7    20    21   ar
     8    21    22   ar
     9    22    23   ar
    10    23    24   ar
    11    24    25   ar
    12     3     4    2
    13     4     5    1
    14     4     6    1
    15     6     7   ar
    16     7     8   ar
    17     8     9   ar
    18     9    10   ar
    19    10    11   ar
    20    11    12    1
    21    12    13    2
    22    12    14    2
    23    12     2    1
    24    25    20   ar
    25    11     6   ar
    26    18    19    1
    27     5    15    1
