@<TRIPOS>MOLECULE
*****
 27 31 0 0 0
SMALL
GASTEIGER

@<TRIPOS>ATOM
      1 O          63.5125   89.3052   12.7896 O.2     1  UNL1       -0.2638
      2 C          62.6924   88.6929   11.6930 C.2     1  UNL1        0.3160
      3 N          62.0664   89.5672   10.6471 N.am    1  UNL1       -0.1720
      4 C          61.2462   88.9549    9.5505 C.ar    1  UNL1        0.0775
      5 C          60.6202   89.8291    8.5046 C.ar    1  UNL1        0.0167
      6 C          59.8001   89.2168    7.4081 C.ar    1  UNL1        0.0013
      7 C          59.6060   87.7303    7.3574 C.ar    1  UNL1        0.0002
      8 C          60.2320   86.8560    8.4032 C.ar    1  UNL1        0.0051
      9 C          61.0521   87.4683    9.4998 C.ar    1  UNL1        0.0623
     10 C          61.6781   86.5941   10.5457 C.2     1  UNL1        0.2419
     11 N          61.6618   85.1087   10.7533 N.2     1  UNL1       -0.0302
     12 C          62.4718   84.8029   11.9781 C.2     1  UNL1        0.3765
     13 N          62.9888   86.0994   12.5276 N.2     1  UNL1       -0.0256
     14 C          62.4982   87.2064   11.6423 C.2     1  UNL1        0.2907
     15 C          62.7212   83.4398   12.5527 C.ar    1  UNL1        0.0989
     16 C          62.0656   83.0373   13.8404 C.ar    1  UNL1        0.0085
     17 C          62.3149   81.6744   14.4149 C.ar    1  UNL1        0.0003
     18 C          63.2199   80.7139   13.7017 C.ar    1  UNL1        0.0009
     19 C          63.8754   81.1164   12.4140 C.ar    1  UNL1        0.0116
     20 C          63.6261   82.4794   11.8395 C.ar    1  UNL1        0.0651
     21 CL         64.2817   82.8820   10.5518 Cl      1  UNL1       -0.0820
     22 C          59.1741   90.0910    6.3622 C.ar    1  UNL1        0.0000
     23 C          60.0389   90.9423    5.4805 C.ar    1  UNL1        0.0000
     24 C          59.4130   91.8165    4.4346 C.ar    1  UNL1        0.0000
     25 C          57.9221   91.8394    4.2703 C.ar    1  UNL1        0.0000
     26 C          57.0573   90.9881    5.1520 C.ar    1  UNL1        0.0000
     27 C          57.6833   90.1139    6.1979 C.ar    1  UNL1        0.0000
@<TRIPOS>BOND
     1     1     2    2
     2     2     3    1
     3     3     4    2
     4     4     5   ar
     5     5     6   ar
     6     6    22    1
     7    22    23   ar
     8    23    24   ar
     9    24    25   ar
    10    25    26   ar
    11    26    27   ar
    12     6     7   ar
    13     7     8   ar
    14     8     9   ar
    15     9    10    2
    16    10    11    1
    17    11    12    2
    18    12    15    1
    19    15    16   ar
    20    16    17   ar
    21    17    18   ar
    22    18    19   ar
    23    19    20   ar
    24    20    21    1
    25    12    13    1
    26    13    14    2
    27    14     2    1
    28     9     4   ar
    29    14    10    1
    30    27    22   ar
    31    20    15   ar
@<TRIPOS>MOLECULE
*****
 27 31 0 0 0
SMALL
GASTEIGER

@<TRIPOS>ATOM
      1 O          67.8963   94.2062   15.2895 O.2     1  UNL1       -0.2638
      2 C          66.9599   93.2332   14.6363 C.2     1  UNL1        0.3160
      3 N          66.4975   92.0189   15.3856 N.am    1  UNL1       -0.1720
      4 C          65.5611   91.0459   14.7323 C.ar    1  UNL1        0.0775
      5 C          65.0987   89.8316   15.4816 C.ar    1  UNL1        0.0167
      6 C          64.1624   88.8587   14.8284 C.ar    1  UNL1        0.0013
      7 C          63.6884   89.1002   13.4259 C.ar    1  UNL1        0.0002
      8 C          64.1508   90.3146   12.6766 C.ar    1  UNL1        0.0051
      9 C          65.0871   91.2874   13.3298 C.ar    1  UNL1        0.0623
     10 C          65.5496   92.5019   12.5805 C.2     1  UNL1        0.2419
     11 N          65.2539   93.0006   11.1971 N.2     1  UNL1       -0.0302
     12 C          66.0075   94.2817   10.9954 C.2     1  UNL1        0.3765
     13 N          66.7689   94.5748   12.2541 N.2     1  UNL1       -0.0256
     14 C          66.4859   93.4747   13.2338 C.2     1  UNL1        0.2907
     15 C          66.0008   95.1223    9.7530 C.ar    1  UNL1        0.0989
     16 C          64.8324   96.0155    9.4580 C.ar    1  UNL1        0.0085
     17 C          64.8258   96.8560    8.2157 C.ar    1  UNL1        0.0003
     18 C          65.9875   96.8033    7.2683 C.ar    1  UNL1        0.0009
     19 C          67.1559   95.9101    7.5632 C.ar    1  UNL1        0.0116
     20 C          67.1626   95.0696    8.8056 C.ar    1  UNL1        0.0651
     21 CL         68.3310   94.1764    9.1006 Cl      1  UNL1       -0.0820
     22 C          63.6999   87.6443   15.5777 C.ar    1  UNL1        0.0000
     23 C          62.9383   87.7995   16.8606 C.ar    1  UNL1        0.0000
     24 C          62.4759   86.5851   17.6099 C.ar    1  UNL1        0.0000
     25 C          62.7750   85.2155   17.0763 C.ar    1  UNL1        0.0000
     26 C          63.5366   85.0603   15.7934 C.ar    1  UNL1        0.0000
     27 C          63.9991   86.2747   15.0441 C.ar    1  UNL1        0.0000
@<TRIPOS>BOND
     1     1     2    2
     2     2     3    1
     3     3     4    2
     4     4     5   ar
     5     5     6   ar
     6     6    22    1
     7    22    23   ar
     8    23    24   ar
     9    24    25   ar
    10    25    26   ar
    11    26    27   ar
    12     6     7   ar
    13     7     8   ar
    14     8     9   ar
    15     9    10    2
    16    10    11    1
    17    11    12    2
    18    12    15    1
    19    15    16   ar
    20    16    17   ar
    21    17    18   ar
    22    18    19   ar
    23    19    20   ar
    24    20    21    1
    25    12    13    1
    26    13    14    2
    27    14     2    1
    28     9     4   ar
    29    14    10    1
    30    27    22   ar
    31    20    15   ar
@<TRIPOS>MOLECULE
*****
 27 31 0 0 0
SMALL
GASTEIGER

@<TRIPOS>ATOM
      1 O          61.3149   88.9425    9.9281 O.2     1  UNL1       -0.2638
      2 C          61.9927   87.9228   10.7947 C.2     1  UNL1        0.3160
      3 N          61.8484   86.4619   10.4869 N.am    1  UNL1       -0.1720
      4 C          62.5262   85.4422   11.3535 C.ar    1  UNL1        0.0775
      5 C          62.3819   83.9813   11.0457 C.ar    1  UNL1        0.0167
      6 C          63.0597   82.9617   11.9123 C.ar    1  UNL1        0.0013
      7 C          63.8818   83.4031   13.0867 C.ar    1  UNL1        0.0002
      8 C          64.0262   84.8640   13.3945 C.ar    1  UNL1        0.0051
      9 C          63.3484   85.8836   12.5279 C.ar    1  UNL1        0.0623
     10 C          63.4927   87.3446   12.8357 C.2     1  UNL1        0.2419
     11 N          64.2328   88.0740   13.9174 N.2     1  UNL1       -0.0302
     12 C          64.0124   89.5445   13.7194 C.2     1  UNL1        0.3765
     13 N          63.1361   89.7238   12.5153 N.2     1  UNL1       -0.0256
     14 C          62.8149   88.3642   11.9692 C.2     1  UNL1        0.2907
     15 C          64.5704   90.6428   14.5752 C.ar    1  UNL1        0.0989
     16 C          65.6592   91.5276   14.0444 C.ar    1  UNL1        0.0085
     17 C          66.2171   92.6258   14.9002 C.ar    1  UNL1        0.0003
     18 C          65.6863   92.8393   16.2868 C.ar    1  UNL1        0.0009
     19 C          64.5976   91.9546   16.8176 C.ar    1  UNL1        0.0116
     20 C          64.0396   90.8563   15.9618 C.ar    1  UNL1        0.0651
     21 CL         62.9508   89.9715   16.4926 Cl      1  UNL1       -0.0820
     22 C          62.9154   81.5007   11.6044 C.ar    1  UNL1        0.0000
     23 C          62.6184   80.5278   12.7068 C.ar    1  UNL1        0.0000
     24 C          62.4741   79.0669   12.3991 C.ar    1  UNL1        0.0000
     25 C          62.6268   78.5788   10.9889 C.ar    1  UNL1        0.0000
     26 C          62.9238   79.5517    9.8865 C.ar    1  UNL1        0.0000
     27 C          63.0681   81.0127   10.1943 C.ar    1  UNL1        0.0000
@<TRIPOS>BOND
     1     1     2    2
     2     2     3    1
     3     3     4    2
     4     4     5   ar
     5     5     6   ar
     6     6    22    1
     7    22    23   ar
     8    23    24   ar
     9    24    25   ar
    10    25    26   ar
    11    26    27   ar
    12     6     7   ar
    13     7     8   ar
    14     8     9   ar
    15     9    10    2
    16    10    11    1
    17    11    12    2
    18    12    15    1
    19    15    16   ar
    20    16    17   ar
    21    17    18   ar
    22    18    19   ar
    23    19    20   ar
    24    20    21    1
    25    12    13    1
    26    13    14    2
    27    14     2    1
    28     9     4   ar
    29    14    10    1
    30    27    22   ar
    31    20    15   ar
@<TRIPOS>MOLECULE
*****
 27 31 0 0 0
SMALL
GASTEIGER

@<TRIPOS>ATOM
      1 O          61.2418   89.5141   10.2209 O.2     1  UNL1       -0.2638
      2 C          61.9758   88.6082   11.1648 C.2     1  UNL1        0.3160
      3 N          61.6663   87.1407   11.1890 N.am    1  UNL1       -0.1720
      4 C          62.4002   86.2349   12.1329 C.ar    1  UNL1        0.0775
      5 C          62.0907   84.7674   12.1571 C.ar    1  UNL1        0.0167
      6 C          62.8247   83.8616   13.1009 C.ar    1  UNL1        0.0013
      7 C          63.8682   84.4233   14.0205 C.ar    1  UNL1        0.0002
      8 C          64.1777   85.8908   13.9962 C.ar    1  UNL1        0.0051
      9 C          63.4437   86.7966   13.0524 C.ar    1  UNL1        0.0623
     10 C          63.7532   88.2642   13.0281 C.2     1  UNL1        0.2419
     11 N          64.7230   89.0984   13.8114 N.2     1  UNL1       -0.0302
     12 C          64.5883   90.5199   13.3517 C.2     1  UNL1        0.3765
     13 N          63.5354   90.5641   12.2843 N.2     1  UNL1       -0.0256
     14 C          63.0193   89.1699   12.0843 C.2     1  UNL1        0.2907
     15 C          65.3695   91.6915   13.8686 C.ar    1  UNL1        0.0989
     16 C          65.7542   91.7562   15.3170 C.ar    1  UNL1        0.0085
     17 C          66.5353   92.9278   15.8339 C.ar    1  UNL1        0.0003
     18 C          66.9318   94.0346   14.9024 C.ar    1  UNL1        0.0009
     19 C          66.5472   93.9699   13.4540 C.ar    1  UNL1        0.0116
     20 C          65.7660   92.7983   12.9371 C.ar    1  UNL1        0.0651
     21 CL         65.3813   92.7336   11.4887 Cl      1  UNL1       -0.0820
     22 C          62.5152   82.3940   13.1252 C.ar    1  UNL1        0.0000
     23 C          63.0747   81.4919   12.0654 C.ar    1  UNL1        0.0000
     24 C          62.7653   80.0244   12.0897 C.ar    1  UNL1        0.0000
     25 C          61.8962   79.4590   13.1737 C.ar    1  UNL1        0.0000
     26 C          61.3366   80.3611   14.2335 C.ar    1  UNL1        0.0000
     27 C          61.6461   81.8287   14.2092 C.ar    1  UNL1        0.0000
@<TRIPOS>BOND
     1     1     2    2
     2     2     3    1
     3     3     4    2
     4     4     5   ar
     5     5     6   ar
     6     6    22    1
     7    22    23   ar
     8    23    24   ar
     9    24    25   ar
    10    25    26   ar
    11    26    27   ar
    12     6     7   ar
    13     7     8   ar
    14     8     9   ar
    15     9    10    2
    16    10    11    1
    17    11    12    2
    18    12    15    1
    19    15    16   ar
    20    16    17   ar
    21    17    18   ar
    22    18    19   ar
    23    19    20   ar
    24    20    21    1
    25    12    13    1
    26    13    14    2
    27    14     2    1
    28     9     4   ar
    29    14    10    1
    30    27    22   ar
    31    20    15   ar
@<TRIPOS>MOLECULE
*****
 27 31 0 0 0
SMALL
GASTEIGER

@<TRIPOS>ATOM
      1 O          63.1687   88.6246   18.0281 O.2     1  UNL1       -0.2638
      2 C          63.3101   87.9624   16.6896 C.2     1  UNL1        0.3160
      3 N          62.9424   86.5176   16.5250 N.am    1  UNL1       -0.1720
      4 C          63.0838   85.8554   15.1865 C.ar    1  UNL1        0.0775
      5 C          62.7162   84.4105   15.0219 C.ar    1  UNL1        0.0167
      6 C          62.8576   83.7484   13.6834 C.ar    1  UNL1        0.0013
      7 C          63.3667   84.5312   12.5095 C.ar    1  UNL1        0.0002
      8 C          63.7343   85.9761   12.6741 C.ar    1  UNL1        0.0051
      9 C          63.5929   86.6382   14.0125 C.ar    1  UNL1        0.0623
     10 C          63.9606   88.0831   14.1772 C.2     1  UNL1        0.2419
     11 N          64.4857   89.1016   13.2093 N.2     1  UNL1       -0.0302
     12 C          64.6689   90.3933   13.9496 C.2     1  UNL1        0.3765
     13 N          64.2570   90.1730   15.3750 N.2     1  UNL1       -0.0256
     14 C          63.8192   88.7452   15.5156 C.2     1  UNL1        0.2907
     15 C          65.1751   91.6795   13.3668 C.ar    1  UNL1        0.0989
     16 C          64.8602   92.0332   11.9436 C.ar    1  UNL1        0.0085
     17 C          65.3664   93.3194   11.3609 C.ar    1  UNL1        0.0003
     18 C          66.1876   94.2517   12.2014 C.ar    1  UNL1        0.0009
     19 C          66.5025   93.8979   13.6246 C.ar    1  UNL1        0.0116
     20 C          65.9963   92.6118   14.2073 C.ar    1  UNL1        0.0651
     21 CL         66.3113   92.2579   15.6306 Cl      1  UNL1       -0.0820
     22 C          62.4899   82.3035   13.5188 C.ar    1  UNL1        0.0000
     23 C          61.4140   81.7014   14.3732 C.ar    1  UNL1        0.0000
     24 C          61.0463   80.2565   14.2086 C.ar    1  UNL1        0.0000
     25 C          61.7545   79.4137   13.1896 C.ar    1  UNL1        0.0000
     26 C          62.8304   80.0158   12.3353 C.ar    1  UNL1        0.0000
     27 C          63.1981   81.4608   12.4999 C.ar    1  UNL1        0.0000
@<TRIPOS>BOND
     1     1     2    2
     2     2     3    1
     3     3     4    2
     4     4     5   ar
     5     5     6   ar
     6     6    22    1
     7    22    23   ar
     8    23    24   ar
     9    24    25   ar
    10    25    26   ar
    11    26    27   ar
    12     6     7   ar
    13     7     8   ar
    14     8     9   ar
    15     9    10    2
    16    10    11    1
    17    11    12    2
    18    12    15    1
    19    15    16   ar
    20    16    17   ar
    21    17    18   ar
    22    18    19   ar
    23    19    20   ar
    24    20    21    1
    25    12    13    1
    26    13    14    2
    27    14     2    1
    28     9     4   ar
    29    14    10    1
    30    27    22   ar
    31    20    15   ar
@<TRIPOS>MOLECULE
*****
 27 31 0 0 0
SMALL
GASTEIGER

@<TRIPOS>ATOM
      1 O          62.4555   85.9505   17.7508 O.2     1  UNL1       -0.2638
      2 C          62.8221   85.6548   16.3266 C.2     1  UNL1        0.3160
      3 N          62.6096   84.2792   15.7676 N.am    1  UNL1       -0.1720
      4 C          62.9762   83.9835   14.3434 C.ar    1  UNL1        0.0775
      5 C          62.7636   82.6080   13.7843 C.ar    1  UNL1        0.0167
      6 C          63.1302   82.3123   12.3602 C.ar    1  UNL1        0.0013
      7 C          63.7093   83.3923   11.4951 C.ar    1  UNL1        0.0002
      8 C          63.9219   84.7678   12.0542 C.ar    1  UNL1        0.0051
      9 C          63.5553   85.0635   13.4783 C.ar    1  UNL1        0.0623
     10 C          63.7679   86.4391   14.0375 C.2     1  UNL1        0.2419
     11 N          64.3159   87.6960   13.4293 N.2     1  UNL1       -0.0302
     12 C          64.2880   88.7685   14.4777 C.2     1  UNL1        0.3765
     13 N          63.7227   88.1744   15.7336 N.2     1  UNL1       -0.0256
     14 C          63.4013   86.7347   15.4616 C.2     1  UNL1        0.2907
     15 C          64.7451   90.1862   14.3010 C.ar    1  UNL1        0.0989
     16 C          65.5632   90.8491   15.3692 C.ar    1  UNL1        0.0085
     17 C          66.0203   92.2667   15.1925 C.ar    1  UNL1        0.0003
     18 C          65.6592   93.0215   13.9475 C.ar    1  UNL1        0.0009
     19 C          64.8410   92.3587   12.8793 C.ar    1  UNL1        0.0116
     20 C          64.3840   90.9410   13.0560 C.ar    1  UNL1        0.0651
     21 CL         63.5658   90.2780   11.9878 Cl      1  UNL1       -0.0820
     22 C          62.9176   80.9367   11.8011 C.ar    1  UNL1        0.0000
     23 C          62.5632   79.8019   12.7157 C.ar    1  UNL1        0.0000
     24 C          62.3507   78.4263   12.1567 C.ar    1  UNL1        0.0000
     25 C          62.4925   78.1855   10.6829 C.ar    1  UNL1        0.0000
     26 C          62.8469   79.3203    9.7682 C.ar    1  UNL1        0.0000
     27 C          63.0595   80.6960   10.3274 C.ar    1  UNL1        0.0000
@<TRIPOS>BOND
     1     1     2    2
     2     2     3    1
     3     3     4    2
     4     4     5   ar
     5     5     6   ar
     6     6    22    1
     7    22    23   ar
     8    23    24   ar
     9    24    25   ar
    10    25    26   ar
    11    26    27   ar
    12     6     7   ar
    13     7     8   ar
    14     8     9   ar
    15     9    10    2
    16    10    11    1
    17    11    12    2
    18    12    15    1
    19    15    16   ar
    20    16    17   ar
    21    17    18   ar
    22    18    19   ar
    23    19    20   ar
    24    20    21    1
    25    12    13    1
    26    13    14    2
    27    14     2    1
    28     9     4   ar
    29    14    10    1
    30    27    22   ar
    31    20    15   ar
