@<TRIPOS>MOLECULE
*****
 33 37 0 0 0
SMALL
GASTEIGER

@<TRIPOS>ATOM
      1 C          62.8480   88.4435   11.9222 C.ar    1  UNL1        0.0540
      2 C          62.1581   88.5816   10.5975 C.ar    1  UNL1        0.0148
      3 C          62.2816   89.8564    9.8168 C.ar    1  UNL1        0.0028
      4 C          63.0950   90.9932   10.3609 C.ar    1  UNL1        0.0189
      5 C          63.7849   90.8551   11.6857 C.ar    1  UNL1        0.0814
      6 C          63.6615   89.5802   12.4663 C.ar    1  UNL1        0.0564
      7 C          64.4488   89.7347   13.7337 C.ar    1  UNL1        0.1375
      8 BR         64.5995   88.7004   14.8095 Br      1  UNL1       -0.0261
      9 N          65.0589   91.1050   13.7364 N.ar    1  UNL1       -0.1621
     10 N          64.6486   91.7975   12.4706 N.ar    1  UNL1       -0.2458
     11 C          62.7518   85.8481   11.9918 C.2     1  UNL1        0.2515
     12 O          62.9025   85.8025   10.5002 O.2     1  UNL1       -0.2697
     13 N          62.7246   87.1686   12.7029 N.am    1  UNL1       -0.2802
     14 H          62.6256   87.1986   13.6820 H       1  UNL1        0.1552
     15 N          62.4738   79.7728   14.2268 N.pl3   1  UNL1       -0.3421
     16 C          62.6791   80.7415   13.1000 C.ar    1  UNL1        0.1346
     17 N          62.9829   80.2348   11.7213 N.ar    1  UNL1       -0.2089
     18 C          63.1882   81.2034   10.5946 C.ar    1  UNL1        0.2000
     19 N          63.0897   82.6788   10.8466 N.ar    1  UNL1       -0.2232
     20 C          62.7859   83.1855   12.2253 C.ar    1  UNL1        0.0966
     21 C          62.6283   84.5732   12.7725 C.ar    1  UNL1        0.0784
     22 C          62.3257   84.4622   14.2375 C.ar    1  UNL1        0.0416
     23 S          62.2961   83.0059   14.5956 S.2     1  UNL1       -0.0819
     24 C          62.5805   82.2168   13.3520 C.ar    1  UNL1        0.0784
     25 H          62.5384   78.8044   14.0614 H       1  UNL1        0.1437
     26 H          62.2743   80.1054   15.1317 H       1  UNL1        0.1437
     27 C          65.0343   93.1881   12.0616 C.3     1  UNL1        0.1553
     28 C          66.1678   93.4006   11.1024 C.ar    1  UNL1        0.0213
     29 C          66.9654   92.2286   10.6124 C.ar    1  UNL1        0.0008
     30 C          68.0989   92.4411    9.6532 C.ar    1  UNL1        0.0204
     31 C          68.4349   93.8258    9.1841 C.ar    1  UNL1        0.0989
     32 N          67.6373   94.9978    9.6742 N.ar    1  UNL1       -0.2426
     33 C          66.5038   94.7853   10.6333 C.ar    1  UNL1        0.0965
@<TRIPOS>BOND
     1    15    16    1
     2    16    17   ar
     3    17    18   ar
     4    18    19   ar
     5    19    20   ar
     6    20    21   ar
     7    21    11    1
     8    11    12    2
     9    11    13   am
    10    13     1    1
    11     1     2   ar
    12     2     3   ar
    13     3     4   ar
    14     4     5   ar
    15     5     6   ar
    16     6     7   ar
    17     7     8    1
    18     7     9   ar
    19     9    10   ar
    20    10    27    1
    21    27    28    1
    22    28    29   ar
    23    29    30   ar
    24    30    31   ar
    25    31    32   ar
    26    32    33   ar
    27    21    22   ar
    28    22    23   ar
    29    23    24   ar
    30    24    16   ar
    31    24    20   ar
    32     6     1   ar
    33    33    28   ar
    34    10     5   ar
    35    15    25    1
    36    15    26    1
    37    13    14    1
@<TRIPOS>MOLECULE
*****
 33 37 0 0 0
SMALL
GASTEIGER

@<TRIPOS>ATOM
      1 C          63.8955   88.6817   13.6976 C.ar    1  UNL1        0.0540
      2 C          64.6505   89.1591   14.9026 C.ar    1  UNL1        0.0148
      3 C          65.2479   90.5349   14.9169 C.ar    1  UNL1        0.0028
      4 C          65.0903   91.4333   13.7261 C.ar    1  UNL1        0.0189
      5 C          64.3354   90.9559   12.5210 C.ar    1  UNL1        0.0814
      6 C          63.7380   89.5800   12.5068 C.ar    1  UNL1        0.0564
      7 C          63.0524   89.3861   11.1869 C.ar    1  UNL1        0.1375
      8 BR         62.3214   88.1527   10.7459 Br      1  UNL1       -0.0261
      9 N          63.2260   90.6420   10.3852 N.ar    1  UNL1       -0.1621
     10 N          64.0190   91.6122   11.2099 N.ar    1  UNL1       -0.2458
     11 C          64.0620   86.1505   14.2595 C.2     1  UNL1        0.2515
     12 O          65.4231   86.3711   14.8498 O.2     1  UNL1       -0.2697
     13 N          63.2981   87.3059   13.6833 N.am    1  UNL1       -0.2802
     14 H          62.4048   87.1611   13.2958 H       1  UNL1        0.1552
     15 N          61.9931   80.1392   13.0082 N.pl3   1  UNL1       -0.3421
     16 C          62.7264   81.3805   12.5940 C.ar    1  UNL1        0.1346
     17 N          63.3736   81.4535   11.2428 N.ar    1  UNL1       -0.2089
     18 C          64.1070   82.6947   10.8286 C.ar    1  UNL1        0.2000
     19 N          64.1932   83.8629   11.7656 N.ar    1  UNL1       -0.2232
     20 C          63.5460   83.7898   13.1167 C.ar    1  UNL1        0.0966
     21 C          63.4646   84.7747   14.2452 C.ar    1  UNL1        0.0784
     22 C          62.6809   84.1422   15.3569 C.ar    1  UNL1        0.0416
     23 S          62.2780   82.7664   14.9154 S.2     1  UNL1       -0.0819
     24 C          62.8126   82.5486   13.5310 C.ar    1  UNL1        0.0784
     25 H          61.9365   79.3725   12.3932 H       1  UNL1        0.1437
     26 H          61.5683   80.0913   13.8951 H       1  UNL1        0.1437
     27 C          64.4243   92.9958   10.7960 C.3     1  UNL1        0.1553
     28 C          65.8187   93.2542   10.3072 C.ar    1  UNL1        0.0213
     29 C          66.8068   92.1284   10.2293 C.ar    1  UNL1        0.0008
     30 C          68.2012   92.3868    9.7405 C.ar    1  UNL1        0.0204
     31 C          68.6075   93.7711    9.3296 C.ar    1  UNL1        0.0989
     32 N          67.6193   94.8969    9.4074 N.ar    1  UNL1       -0.2426
     33 C          66.2249   94.6385    9.8962 C.ar    1  UNL1        0.0965
@<TRIPOS>BOND
     1    15    16    1
     2    16    17   ar
     3    17    18   ar
     4    18    19   ar
     5    19    20   ar
     6    20    21   ar
     7    21    11    1
     8    11    12    2
     9    11    13   am
    10    13     1    1
    11     1     2   ar
    12     2     3   ar
    13     3     4   ar
    14     4     5   ar
    15     5     6   ar
    16     6     7   ar
    17     7     8    1
    18     7     9   ar
    19     9    10   ar
    20    10    27    1
    21    27    28    1
    22    28    29   ar
    23    29    30   ar
    24    30    31   ar
    25    31    32   ar
    26    32    33   ar
    27    21    22   ar
    28    22    23   ar
    29    23    24   ar
    30    24    16   ar
    31    24    20   ar
    32     6     1   ar
    33    33    28   ar
    34    10     5   ar
    35    15    25    1
    36    15    26    1
    37    13    14    1
@<TRIPOS>MOLECULE
*****
 33 37 0 0 0
SMALL
GASTEIGER

@<TRIPOS>ATOM
      1 C          62.7475   87.3814   11.8212 C.ar    1  UNL1        0.0540
      2 C          62.0796   88.0041   10.6312 C.ar    1  UNL1        0.0148
      3 C          62.1375   89.4896   10.4307 C.ar    1  UNL1        0.0028
      4 C          62.8632   90.3521   11.4203 C.ar    1  UNL1        0.0189
      5 C          63.5311   89.7293   12.6103 C.ar    1  UNL1        0.0814
      6 C          63.4732   88.2439   12.8108 C.ar    1  UNL1        0.0564
      7 C          64.2205   87.9166   14.0694 C.ar    1  UNL1        0.1375
      8 BR         64.4141   86.5467   14.6489 Br      1  UNL1       -0.0261
      9 N          64.7403   89.1997   14.6470 N.ar    1  UNL1       -0.1621
     10 N          64.3142   90.3200   13.7451 N.ar    1  UNL1       -0.2458
     11 C          63.0208   84.9725   10.8869 C.2     1  UNL1        0.2515
     12 O          63.4098   85.5345    9.5518 O.2     1  UNL1       -0.2697
     13 N          62.6896   85.8959   12.0217 N.am    1  UNL1       -0.2802
     14 H          62.4343   85.5271   12.8980 H       1  UNL1        0.1552
     15 N          62.4633   78.8641   12.9744 N.pl3   1  UNL1       -0.3421
     16 C          62.4060   80.3412   13.2288 C.ar    1  UNL1        0.1346
     17 N          62.0627   80.8541   14.5959 N.ar    1  UNL1       -0.2089
     18 C          62.0054   82.3313   14.8503 C.ar    1  UNL1        0.2000
     19 N          62.2916   83.2956   13.7376 N.ar    1  UNL1       -0.2232
     20 C          62.6349   82.7827   12.3705 C.ar    1  UNL1        0.0966
     21 C          62.9629   83.4871   11.0874 C.ar    1  UNL1        0.0784
     22 C          63.2228   82.4452   10.0400 C.ar    1  UNL1        0.0416
     23 S          63.0555   81.0970   10.6758 S.2     1  UNL1       -0.0819
     24 C          62.6922   81.3056   12.1161 C.ar    1  UNL1        0.0784
     25 H          62.2755   78.2312   13.7047 H       1  UNL1        0.1437
     26 H          62.6886   78.5275   12.0771 H       1  UNL1        0.1437
     27 C          64.6179   91.7755   13.9433 C.3     1  UNL1        0.1553
     28 C          65.9880   92.2032   14.3793 C.ar    1  UNL1        0.0213
     29 C          66.1959   92.7661   15.7540 C.ar    1  UNL1        0.0008
     30 C          67.5659   93.1938   16.1900 C.ar    1  UNL1        0.0204
     31 C          68.7281   93.0586   15.2512 C.ar    1  UNL1        0.0989
     32 N          68.5201   92.4957   13.8765 N.ar    1  UNL1       -0.2426
     33 C          67.1501   92.0680   13.4405 C.ar    1  UNL1        0.0965
@<TRIPOS>BOND
     1    15    16    1
     2    16    17   ar
     3    17    18   ar
     4    18    19   ar
     5    19    20   ar
     6    20    21   ar
     7    21    11    1
     8    11    12    2
     9    11    13   am
    10    13     1    1
    11     1     2   ar
    12     2     3   ar
    13     3     4   ar
    14     4     5   ar
    15     5     6   ar
    16     6     7   ar
    17     7     8    1
    18     7     9   ar
    19     9    10   ar
    20    10    27    1
    21    27    28    1
    22    28    29   ar
    23    29    30   ar
    24    30    31   ar
    25    31    32   ar
    26    32    33   ar
    27    21    22   ar
    28    22    23   ar
    29    23    24   ar
    30    24    16   ar
    31    24    20   ar
    32     6     1   ar
    33    33    28   ar
    34    10     5   ar
    35    15    25    1
    36    15    26    1
    37    13    14    1
@<TRIPOS>MOLECULE
*****
 33 37 0 0 0
SMALL
GASTEIGER

@<TRIPOS>ATOM
      1 C          62.7482   88.5114   11.5210 C.ar    1  UNL1        0.0540
      2 C          62.0428   88.8843   10.2508 C.ar    1  UNL1        0.0148
      3 C          62.1633   90.2771    9.7070 C.ar    1  UNL1        0.0028
      4 C          62.9893   91.2969   10.4335 C.ar    1  UNL1        0.0189
      5 C          63.6946   90.9240   11.7037 C.ar    1  UNL1        0.0814
      6 C          63.5741   89.5312   12.2475 C.ar    1  UNL1        0.0564
      7 C          64.3776   89.4560   13.5118 C.ar    1  UNL1        0.1375
      8 BR         64.5362   88.2468   14.3851 Br      1  UNL1       -0.0261
      9 N          64.9949   90.8023   13.7496 N.ar    1  UNL1       -0.1621
     10 N          64.5727   91.7095   12.6321 N.ar    1  UNL1       -0.2458
     11 C          62.7351   85.9412   11.1415 C.2     1  UNL1        0.2515
     12 O          62.9631   86.1566    9.6748 O.2     1  UNL1       -0.2697
     13 N          62.6276   87.1186   12.0647 N.am    1  UNL1       -0.2802
     14 H          62.4779   86.9773   13.0274 H       1  UNL1        0.1552
     15 N          62.2807   80.5101   14.6456 N.pl3   1  UNL1       -0.3421
     16 C          62.4154   82.0016   14.5604 C.ar    1  UNL1        0.1346
     17 N          62.5041   82.8195   15.8146 N.ar    1  UNL1       -0.2089
     18 C          62.6388   84.3110   15.7294 C.ar    1  UNL1        0.2000
     19 N          62.6849   84.9846   14.3900 N.ar    1  UNL1       -0.2232
     20 C          62.5962   84.1667   13.1358 C.ar    1  UNL1        0.0966
     21 C          62.6145   84.5484   11.6853 C.ar    1  UNL1        0.0784
     22 C          62.4910   83.2928   10.8739 C.ar    1  UNL1        0.0416
     23 S          62.3965   82.1351   11.8231 S.2     1  UNL1       -0.0819
     24 C          62.4615   82.6752   13.2210 C.ar    1  UNL1        0.0784
     25 H          62.2504   80.0680   15.5247 H       1  UNL1        0.1437
     26 H          62.2225   79.9733   13.8223 H       1  UNL1        0.1437
     27 C          64.9606   93.1496   12.4712 C.3     1  UNL1        0.1553
     28 C          65.9425   93.5478   11.4094 C.ar    1  UNL1        0.0213
     29 C          66.7726   92.5023   10.7254 C.ar    1  UNL1        0.0008
     30 C          67.7544   92.9005    9.6636 C.ar    1  UNL1        0.0204
     31 C          67.9061   94.3442    9.2857 C.ar    1  UNL1        0.0989
     32 N          67.0760   95.3897    9.9697 N.ar    1  UNL1       -0.2426
     33 C          66.0941   94.9915   11.0315 C.ar    1  UNL1        0.0965
@<TRIPOS>BOND
     1    15    16    1
     2    16    17   ar
     3    17    18   ar
     4    18    19   ar
     5    19    20   ar
     6    20    21   ar
     7    21    11    1
     8    11    12    2
     9    11    13   am
    10    13     1    1
    11     1     2   ar
    12     2     3   ar
    13     3     4   ar
    14     4     5   ar
    15     5     6   ar
    16     6     7   ar
    17     7     8    1
    18     7     9   ar
    19     9    10   ar
    20    10    27    1
    21    27    28    1
    22    28    29   ar
    23    29    30   ar
    24    30    31   ar
    25    31    32   ar
    26    32    33   ar
    27    21    22   ar
    28    22    23   ar
    29    23    24   ar
    30    24    16   ar
    31    24    20   ar
    32     6     1   ar
    33    33    28   ar
    34    10     5   ar
    35    15    25    1
    36    15    26    1
    37    13    14    1
@<TRIPOS>MOLECULE
*****
 33 37 0 0 0
SMALL
GASTEIGER

@<TRIPOS>ATOM
      1 C          61.9520   87.8403   10.9126 C.ar    1  UNL1        0.0540
      2 C          62.3947   86.4750   10.4768 C.ar    1  UNL1        0.0148
      3 C          61.9163   85.9127    9.1711 C.ar    1  UNL1        0.0028
      4 C          60.9951   86.7157    8.3013 C.ar    1  UNL1        0.0189
      5 C          60.5524   88.0810    8.7371 C.ar    1  UNL1        0.0814
      6 C          61.0309   88.6433   10.0428 C.ar    1  UNL1        0.0564
      7 C          60.4299   90.0076   10.2079 C.ar    1  UNL1        0.1375
      8 BR         60.6416   90.9293   11.3723 Br      1  UNL1       -0.0261
      9 N          59.5799   90.2886    9.0043 N.ar    1  UNL1       -0.1621
     10 N          59.6557   89.0978    8.0953 N.ar    1  UNL1       -0.2458
     11 C          63.3093   89.6182   12.2344 C.2     1  UNL1        0.2515
     12 O          63.7096   90.2713   10.9448 O.2     1  UNL1       -0.2697
     13 N          62.4305   88.4026   12.2183 N.am    1  UNL1       -0.2802
     14 H          62.1677   87.9740   13.0647 H       1  UNL1        0.1552
     15 N          66.1169   92.8053   17.1273 N.pl3   1  UNL1       -0.3421
     16 C          65.9429   92.5603   15.6578 C.ar    1  UNL1        0.1346
     17 N          66.7329   93.3607   14.6652 N.ar    1  UNL1       -0.2089
     18 C          66.5589   93.1156   13.1956 C.ar    1  UNL1        0.2000
     19 N          65.5948   92.0702   12.7186 N.ar    1  UNL1       -0.2232
     20 C          64.8048   91.2698   13.7111 C.ar    1  UNL1        0.0966
     21 C          63.7878   90.1806   13.5401 C.ar    1  UNL1        0.0784
     22 C          63.3332   89.7524   14.9039 C.ar    1  UNL1        0.0416
     23 S          64.0693   90.5770   15.9179 S.2     1  UNL1       -0.0819
     24 C          64.9788   91.5149   15.1807 C.ar    1  UNL1        0.0784
     25 H          66.7496   93.4915   17.4404 H       1  UNL1        0.1437
     26 H          65.5983   92.2800   17.7788 H       1  UNL1        0.1437
     27 C          58.9573   88.9499    6.7760 C.3     1  UNL1        0.1553
     28 C          58.9336   90.0950    5.8074 C.ar    1  UNL1        0.0213
     29 C          60.2133   90.5942    5.2048 C.ar    1  UNL1        0.0008
     30 C          60.1896   91.7393    4.2362 C.ar    1  UNL1        0.0204
     31 C          58.8861   92.3851    3.8701 C.ar    1  UNL1        0.0989
     32 N          57.6064   91.8859    4.4727 N.ar    1  UNL1       -0.2426
     33 C          57.6301   90.7408    5.4413 C.ar    1  UNL1        0.0965
@<TRIPOS>BOND
     1    15    16    1
     2    16    17   ar
     3    17    18   ar
     4    18    19   ar
     5    19    20   ar
     6    20    21   ar
     7    21    11    1
     8    11    12    2
     9    11    13   am
    10    13     1    1
    11     1     2   ar
    12     2     3   ar
    13     3     4   ar
    14     4     5   ar
    15     5     6   ar
    16     6     7   ar
    17     7     8    1
    18     7     9   ar
    19     9    10   ar
    20    10    27    1
    21    27    28    1
    22    28    29   ar
    23    29    30   ar
    24    30    31   ar
    25    31    32   ar
    26    32    33   ar
    27    21    22   ar
    28    22    23   ar
    29    23    24   ar
    30    24    16   ar
    31    24    20   ar
    32     6     1   ar
    33    33    28   ar
    34    10     5   ar
    35    15    25    1
    36    15    26    1
    37    13    14    1
@<TRIPOS>MOLECULE
*****
 33 37 0 0 0
SMALL
GASTEIGER

@<TRIPOS>ATOM
      1 C          63.7373   86.2237   13.4721 C.ar    1  UNL1        0.0540
      2 C          64.3825   86.5946   14.7745 C.ar    1  UNL1        0.0148
      3 C          64.5587   88.0388   15.1396 C.ar    1  UNL1        0.0028
      4 C          64.0898   89.1119   14.2024 C.ar    1  UNL1        0.0189
      5 C          63.4446   88.7410   12.9001 C.ar    1  UNL1        0.0814
      6 C          63.2683   87.2968   12.5349 C.ar    1  UNL1        0.0564
      7 C          62.6021   87.2361   11.1924 C.ar    1  UNL1        0.1375
      8 BR         62.2357   85.9879   10.4456 Br      1  UNL1       -0.0261
      9 N          62.3666   88.6428   10.7277 N.ar    1  UNL1       -0.1621
     10 N          62.8873   89.5728   11.7832 N.ar    1  UNL1       -0.2458
     11 C          62.6548   83.9050   13.9220 C.2     1  UNL1        0.2515
     12 O          61.9249   84.4748   15.1020 O.2     1  UNL1       -0.2697
     13 N          63.5610   84.7795   13.1070 N.am    1  UNL1       -0.2802
     14 H          64.0401   84.4056   12.3324 H       1  UNL1        0.1552
     15 N          62.4056   78.0264   11.2089 N.pl3   1  UNL1       -0.3421
     16 C          62.7518   79.4841   11.1368 C.ar    1  UNL1        0.1346
     17 N          63.3536   80.0511    9.8853 N.ar    1  UNL1       -0.2089
     18 C          63.6998   81.5088    9.8132 C.ar    1  UNL1        0.2000
     19 N          63.4441   82.3996   10.9927 N.ar    1  UNL1       -0.2232
     20 C          62.8424   81.8326   12.2442 C.ar    1  UNL1        0.0966
     21 C          62.4785   82.4608   13.5568 C.ar    1  UNL1        0.0784
     22 C          61.9075   81.3914   14.4402 C.ar    1  UNL1        0.0416
     23 S          61.9184   80.1022   13.6734 S.2     1  UNL1       -0.0819
     24 C          62.4962   80.3749   12.3163 C.ar    1  UNL1        0.0784
     25 H          62.5734   77.4417   10.4348 H       1  UNL1        0.1437
     26 H          62.0107   77.6543   12.0303 H       1  UNL1        0.1437
     27 C          62.8561   91.0716   11.7308 C.3     1  UNL1        0.1553
     28 C          64.1393   91.8482   11.7104 C.ar    1  UNL1        0.0213
     29 C          64.6878   92.3562   10.4101 C.ar    1  UNL1        0.0008
     30 C          65.9710   93.1329   10.3896 C.ar    1  UNL1        0.0204
     31 C          66.7056   93.4014   11.6697 C.ar    1  UNL1        0.0989
     32 N          66.1570   92.8933   12.9700 N.ar    1  UNL1       -0.2426
     33 C          64.8739   92.1167   12.9904 C.ar    1  UNL1        0.0965
@<TRIPOS>BOND
     1    15    16    1
     2    16    17   ar
     3    17    18   ar
     4    18    19   ar
     5    19    20   ar
     6    20    21   ar
     7    21    11    1
     8    11    12    2
     9    11    13   am
    10    13     1    1
    11     1     2   ar
    12     2     3   ar
    13     3     4   ar
    14     4     5   ar
    15     5     6   ar
    16     6     7   ar
    17     7     8    1
    18     7     9   ar
    19     9    10   ar
    20    10    27    1
    21    27    28    1
    22    28    29   ar
    23    29    30   ar
    24    30    31   ar
    25    31    32   ar
    26    32    33   ar
    27    21    22   ar
    28    22    23   ar
    29    23    24   ar
    30    24    16   ar
    31    24    20   ar
    32     6     1   ar
    33    33    28   ar
    34    10     5   ar
    35    15    25    1
    36    15    26    1
    37    13    14    1
@<TRIPOS>MOLECULE
*****
 33 37 0 0 0
SMALL
GASTEIGER

@<TRIPOS>ATOM
      1 C          60.6481   87.7490   10.1084 C.ar    1  UNL1        0.0540
      2 C          60.6936   88.8480   11.1283 C.ar    1  UNL1        0.0148
      3 C          60.2188   90.2247   10.7690 C.ar    1  UNL1        0.0028
      4 C          59.6984   90.5024    9.3899 C.ar    1  UNL1        0.0189
      5 C          59.6529   89.4035    8.3700 C.ar    1  UNL1        0.0814
      6 C          60.1277   88.0267    8.7293 C.ar    1  UNL1        0.0564
      7 C          59.9638   87.1504    7.5230 C.ar    1  UNL1        0.1375
      8 BR         60.3144   85.6945    7.4367 Br      1  UNL1       -0.0261
      9 N          59.3875   87.9855    6.4182 N.ar    1  UNL1       -0.1621
     10 N          59.1954   89.3780    6.9417 N.ar    1  UNL1       -0.2458
     11 C          62.3109   86.1995   11.3672 C.2     1  UNL1        0.2515
     12 O          63.0238   87.4036   11.9074 O.2     1  UNL1       -0.2697
     13 N          61.1230   86.3722   10.4676 N.am    1  UNL1       -0.2802
     14 H          60.6550   85.5820   10.1130 H       1  UNL1        0.1552
     15 N          64.0252   80.5923   14.1242 N.pl3   1  UNL1       -0.3421
     16 C          63.4674   81.9809   14.2267 C.ar    1  UNL1        0.1346
     17 N          63.0323   82.5181   15.5579 N.ar    1  UNL1       -0.2089
     18 C          62.4744   83.9067   15.6604 C.ar    1  UNL1        0.2000
     19 N          62.3516   84.7582   14.4317 N.ar    1  UNL1       -0.2232
     20 C          62.7867   84.2211   13.1005 C.ar    1  UNL1        0.0966
     21 C          62.7858   84.8228   11.7264 C.ar    1  UNL1        0.0784
     22 C          63.3431   83.8061   10.7747 C.ar    1  UNL1        0.0416
     23 S          63.6884   82.5760   11.5606 S.2     1  UNL1       -0.0819
     24 C          63.3445   82.8324   12.9980 C.ar    1  UNL1        0.0784
     25 H          64.1058   80.0334   14.9307 H       1  UNL1        0.1437
     26 H          64.3108   80.2398   13.2505 H       1  UNL1        0.1437
     27 C          58.6428   90.5408    6.1720 C.3     1  UNL1        0.1553
     28 C          59.4675   91.1913    5.1011 C.ar    1  UNL1        0.0213
     29 C          60.9171   90.8361    4.9510 C.ar    1  UNL1        0.0008
     30 C          61.7417   91.4866    3.8801 C.ar    1  UNL1        0.0204
     31 C          61.1167   92.4924    2.9592 C.ar    1  UNL1        0.0989
     32 N          59.6671   92.8476    3.1093 N.ar    1  UNL1       -0.2426
     33 C          58.8425   92.1971    4.1802 C.ar    1  UNL1        0.0965
@<TRIPOS>BOND
     1    15    16    1
     2    16    17   ar
     3    17    18   ar
     4    18    19   ar
     5    19    20   ar
     6    20    21   ar
     7    21    11    1
     8    11    12    2
     9    11    13   am
    10    13     1    1
    11     1     2   ar
    12     2     3   ar
    13     3     4   ar
    14     4     5   ar
    15     5     6   ar
    16     6     7   ar
    17     7     8    1
    18     7     9   ar
    19     9    10   ar
    20    10    27    1
    21    27    28    1
    22    28    29   ar
    23    29    30   ar
    24    30    31   ar
    25    31    32   ar
    26    32    33   ar
    27    21    22   ar
    28    22    23   ar
    29    23    24   ar
    30    24    16   ar
    31    24    20   ar
    32     6     1   ar
    33    33    28   ar
    34    10     5   ar
    35    15    25    1
    36    15    26    1
    37    13    14    1
@<TRIPOS>MOLECULE
*****
 33 37 0 0 0
SMALL
GASTEIGER

@<TRIPOS>ATOM
      1 C          58.0483   93.0522   -3.4349 C.ar    1  UNL1        0.0540
      2 C          57.6075   91.7405   -4.0137 C.ar    1  UNL1        0.0148
      3 C          56.4877   91.6993   -5.0110 C.ar    1  UNL1        0.0028
      4 C          55.8089   92.9697   -5.4293 C.ar    1  UNL1        0.0189
      5 C          56.2497   94.2814   -4.8504 C.ar    1  UNL1        0.0814
      6 C          57.3694   94.3227   -3.8532 C.ar    1  UNL1        0.0564
      7 C          57.5847   95.7532   -3.4569 C.ar    1  UNL1        0.1375
      8 BR         58.6072   96.2531   -2.4798 Br      1  UNL1       -0.0261
      9 N          56.5980   96.5962   -4.2091 N.ar    1  UNL1       -0.1621
     10 N          55.7729   95.6865   -5.0704 N.ar    1  UNL1       -0.2458
     11 C          58.8721   92.9718   -0.9721 C.2     1  UNL1        0.2515
     12 O          57.4564   92.8088   -0.5039 O.2     1  UNL1       -0.2697
     13 N          59.1681   93.0935   -2.4376 N.am    1  UNL1       -0.2802
     14 H          60.0972   93.2004   -2.7449 H       1  UNL1        0.1552
     15 N          64.4547   93.3534    2.2944 N.pl3   1  UNL1       -0.3421
     16 C          63.6925   93.3885    1.0029 C.ar    1  UNL1        0.1346
     17 N          64.4180   93.6153   -0.2902 N.ar    1  UNL1       -0.2089
     18 C          63.6557   93.6504   -1.5816 C.ar    1  UNL1        0.2000
     19 N          62.1681   93.4587   -1.5799 N.ar    1  UNL1       -0.2232
     20 C          61.4426   93.2320   -0.2868 C.ar    1  UNL1        0.0966
     21 C          59.9918   93.0130    0.0252 C.ar    1  UNL1        0.0784
     22 C          59.8574   92.8427    1.5094 C.ar    1  UNL1        0.0416
     23 S          61.2251   92.9563    2.1147 S.2     1  UNL1       -0.0819
     24 C          62.2048   93.1969    1.0046 C.ar    1  UNL1        0.0784
     25 H          65.4311   93.4792    2.2933 H       1  UNL1        0.1437
     26 H          63.9785   93.2046    3.1431 H       1  UNL1        0.1437
     27 C          54.6655   96.1080   -5.9902 C.3     1  UNL1        0.1553
     28 C          53.2537   96.1659   -5.4869 C.ar    1  UNL1        0.0213
     29 C          52.9747   96.0347   -4.0189 C.ar    1  UNL1        0.0008
     30 C          51.5628   96.0926   -3.5156 C.ar    1  UNL1        0.0204
     31 C          50.4299   96.2818   -4.4804 C.ar    1  UNL1        0.0989
     32 N          50.7088   96.4130   -5.9484 N.ar    1  UNL1       -0.2426
     33 C          52.1207   96.3551   -6.4517 C.ar    1  UNL1        0.0965
@<TRIPOS>BOND
     1    15    16    1
     2    16    17   ar
     3    17    18   ar
     4    18    19   ar
     5    19    20   ar
     6    20    21   ar
     7    21    11    1
     8    11    12    2
     9    11    13   am
    10    13     1    1
    11     1     2   ar
    12     2     3   ar
    13     3     4   ar
    14     4     5   ar
    15     5     6   ar
    16     6     7   ar
    17     7     8    1
    18     7     9   ar
    19     9    10   ar
    20    10    27    1
    21    27    28    1
    22    28    29   ar
    23    29    30   ar
    24    30    31   ar
    25    31    32   ar
    26    32    33   ar
    27    21    22   ar
    28    22    23   ar
    29    23    24   ar
    30    24    16   ar
    31    24    20   ar
    32     6     1   ar
    33    33    28   ar
    34    10     5   ar
    35    15    25    1
    36    15    26    1
    37    13    14    1
@<TRIPOS>MOLECULE
*****
 33 37 0 0 0
SMALL
GASTEIGER

@<TRIPOS>ATOM
      1 C          63.1816   88.5922   12.1602 C.ar    1  UNL1        0.0540
      2 C          62.3202   89.1055   11.0447 C.ar    1  UNL1        0.0148
      3 C          61.4683   88.1551   10.2567 C.ar    1  UNL1        0.0028
      4 C          61.4778   86.6914   10.5843 C.ar    1  UNL1        0.0189
      5 C          62.3392   86.1780   11.6998 C.ar    1  UNL1        0.0814
      6 C          63.1911   87.1285   12.4878 C.ar    1  UNL1        0.0564
      7 C          63.9326   86.3366   13.5237 C.ar    1  UNL1        0.1375
      8 BR         64.8982   86.8878   14.5306 Br      1  UNL1       -0.0261
      9 N          63.5390   84.8967   13.3760 N.ar    1  UNL1       -0.1621
     10 N          62.5542   84.7987   12.2488 N.ar    1  UNL1       -0.2458
     11 C          63.5350   90.0922   14.2520 C.2     1  UNL1        0.2515
     12 O          62.1848   89.6913   14.7676 O.2     1  UNL1       -0.2697
     13 N          64.0335   89.5426   12.9482 N.am    1  UNL1       -0.2802
     14 H          64.9197   89.8058   12.6097 H       1  UNL1        0.1552
     15 N          68.0218   94.1079   16.6446 N.pl3   1  UNL1       -0.3421
     16 C          67.5279   93.2013   15.5564 C.ar    1  UNL1        0.1346
     17 N          68.3521   92.9951   14.3202 N.ar    1  UNL1       -0.2089
     18 C          67.8583   92.0885   13.2321 C.ar    1  UNL1        0.2000
     19 N          66.5402   91.3880   13.3800 N.ar    1  UNL1       -0.2232
     20 C          65.7159   91.5942   14.6162 C.ar    1  UNL1        0.0966
     21 C          64.3870   91.0426   15.0400 C.ar    1  UNL1        0.0784
     22 C          64.0594   91.6084   16.3900 C.ar    1  UNL1        0.0416
     23 S          65.1860   92.5096   16.8006 S.2     1  UNL1       -0.0819
     24 C          66.2098   92.5008   15.7043 C.ar    1  UNL1        0.0784
     25 H          68.8869   94.5676   16.5474 H       1  UNL1        0.1437
     26 H          67.4808   94.2432   17.4559 H       1  UNL1        0.1437
     27 C          61.8994   83.5421   11.7569 C.3     1  UNL1        0.1553
     28 C          62.1778   82.2351   12.4382 C.ar    1  UNL1        0.0213
     29 C          62.5692   81.0351   11.6277 C.ar    1  UNL1        0.0008
     30 C          62.8476   79.7281   12.3091 C.ar    1  UNL1        0.0204
     31 C          62.7345   79.6211   13.8011 C.ar    1  UNL1        0.0989
     32 N          62.3431   80.8210   14.6116 N.ar    1  UNL1       -0.2426
     33 C          62.0648   82.1280   13.9302 C.ar    1  UNL1        0.0965
@<TRIPOS>BOND
     1    15    16    1
     2    16    17   ar
     3    17    18   ar
     4    18    19   ar
     5    19    20   ar
     6    20    21   ar
     7    21    11    1
     8    11    12    2
     9    11    13   am
    10    13     1    1
    11     1     2   ar
    12     2     3   ar
    13     3     4   ar
    14     4     5   ar
    15     5     6   ar
    16     6     7   ar
    17     7     8    1
    18     7     9   ar
    19     9    10   ar
    20    10    27    1
    21    27    28    1
    22    28    29   ar
    23    29    30   ar
    24    30    31   ar
    25    31    32   ar
    26    32    33   ar
    27    21    22   ar
    28    22    23   ar
    29    23    24   ar
    30    24    16   ar
    31    24    20   ar
    32     6     1   ar
    33    33    28   ar
    34    10     5   ar
    35    15    25    1
    36    15    26    1
    37    13    14    1
