@<TRIPOS>MOLECULE
*****
 68 75 0 0 0
SMALL
GASTEIGER

@<TRIPOS>ATOM
      1 N          65.3659   89.2707   14.4848 N.3     1  UNL1       -0.1862
      2 C          65.5633   88.0186   15.2868 C.3     1  UNL1        0.1775
      3 C          64.7690   86.7879   14.9637 C.2     1  UNL1        0.2452
      4 O          64.9665   85.5357   15.7658 O.2     1  UNL1       -0.2732
      5 N          63.7774   86.8092   13.8385 N.am    1  UNL1       -0.2541
      6 C          63.5800   88.0613   13.0364 C.3     1  UNL1        0.1908
      7 C          62.5883   88.0826   11.9111 C.3     1  UNL1        0.1359
      8 N          61.7941   86.8519   11.5880 N.am    1  UNL1       -0.2705
      9 C          61.9915   85.5998   12.3901 C.2     1  UNL1        0.2445
     10 O          61.1973   84.3690   12.0669 O.2     1  UNL1       -0.2731
     11 C          62.9832   85.5784   13.5153 C.3     1  UNL1        0.1577
     12 N          64.3743   89.2920   13.3596 N.am    1  UNL1       -0.1863
     13 C          64.1768   90.5441   12.5575 C.2     1  UNL1        0.3191
     14 O          63.1852   90.5654   11.4323 O.2     1  UNL1       -0.2512
     15 N          64.9711   91.7749   12.8807 N.am    1  UNL1       -0.2836
     16 H          65.6219   91.7609   13.6192 H       1  UNL1        0.1513
     17 C          66.1601   90.5014   14.8080 C.3     1  UNL1        0.1188
     18 C          66.4107   92.7271   16.1247 C.2     1  UNL1       -0.0034
     19 C          65.5677   91.5690   15.6793 C.2     1  UNL1       -0.0071
     20 C          60.8024   86.8732   10.4628 C.3     1  UNL1        0.1217
     21 C          60.3941   88.1789    9.8475 C.ar    1  UNL1        0.0135
     22 C          60.1228   89.3675   10.7214 C.ar    1  UNL1       -0.0012
     23 C          59.7145   90.6731   10.1063 C.ar    1  UNL1       -0.0002
     24 C          59.5776   90.7903    8.6172 C.ar    1  UNL1        0.0016
     25 C          59.8489   89.6017    7.7432 C.ar    1  UNL1        0.0214
     26 C          59.7965   89.4169    6.2556 C.ar    1  UNL1        0.0722
     27 C          60.1724   87.9970    5.9514 C.ar    1  UNL1        0.0805
     28 N          60.4571   87.3043    7.2510 N.ar    1  UNL1       -0.3241
     29 C          60.8694   85.8714    7.4145 C.3     1  UNL1        0.1305
     30 C          60.2572   88.2961    8.3584 C.ar    1  UNL1        0.0577
     31 C          59.4321   90.4676    5.2489 C.2     1  UNL1        0.2510
     32 O          57.9915   90.8126    5.0128 O.2     1  UNL1       -0.2698
     33 N          60.5083   91.1732    4.4783 N.am    1  UNL1       -0.2791
     34 H          61.4538   90.9468    4.6332 H       1  UNL1        0.1552
     35 C          60.1441   92.2238    3.4716 C.ar    1  UNL1        0.0701
     36 C          59.7853   91.8273    2.0701 C.ar    1  UNL1        0.0191
     37 C          59.4210   92.8779    1.0634 C.ar    1  UNL1        0.0354
     38 C          59.4155   94.3250    1.4581 C.ar    1  UNL1        0.1286
     39 N          59.7743   94.7215    2.8595 N.ar    1  UNL1       -0.2281
     40 C          60.1386   93.6710    3.8663 C.ar    1  UNL1        0.1149
     41 N          59.0513   95.3756    0.4514 N.pl3   1  UNL1       -0.3169
     42 H          58.5499   96.1746    0.7333 H       1  UNL1        0.1482
     43 C          59.4509   95.2089   -0.9848 C.3     1  UNL1        0.1057
     44 C          58.4027   95.1886   -2.0575 C.3     1  UNL1        0.0936
     45 N          57.7226   93.9010   -2.4173 N.3     1  UNL1       -0.2711
     46 C          56.5001   93.4632   -1.6664 C.3     1  UNL1        0.0746
     47 C          55.8200   92.1755   -2.0263 C.3     1  UNL1        0.0466
     48 C          56.3624   91.3258   -3.1370 C.3     1  UNL1        0.1133
     49 O          55.6823   90.0381   -3.4968 O.3     1  UNL1       -0.3844
     50 C          57.5849   91.7636   -3.8879 C.3     1  UNL1        0.0466
     51 C          58.2650   93.0512   -3.5280 C.3     1  UNL1        0.0746
     52 H          54.9145   89.9056   -2.9190 H       1  UNL1        0.2103
     53 C          63.1806   84.3264   14.3173 C.3     1  UNL1        0.0556
     54 C          63.0362   82.9851   13.6616 C.ar    1  UNL1       -0.0198
     55 C          63.8307   82.6624   12.4309 C.ar    1  UNL1       -0.0011
     56 C          63.6864   81.3211   11.7752 C.ar    1  UNL1        0.0363
     57 C          62.7474   80.3024   12.3501 C.ar    1  UNL1        0.1337
     58 O          62.6030   78.9611   11.6943 O.3     1  UNL1       -0.5055
     59 C          61.9528   80.6250   13.5808 C.ar    1  UNL1        0.0363
     60 C          62.0972   81.9663   14.2365 C.ar    1  UNL1       -0.0011
     61 H          63.0994   78.7596   10.9256 H       1  UNL1        0.2922
     62 C          64.7737   93.0269   12.0786 C.3     1  UNL1        0.1177
     63 C          65.8250   93.4663   11.1032 C.ar    1  UNL1       -0.0025
     64 C          66.8005   92.4691   10.5520 C.ar    1  UNL1       -0.0026
     65 C          67.8519   92.9085    9.5766 C.ar    1  UNL1       -0.0003
     66 C          67.9278   94.3452    9.1522 C.ar    1  UNL1       -0.0000
     67 C          66.9522   95.3425    9.7034 C.ar    1  UNL1       -0.0003
     68 C          65.9009   94.9031   10.6788 C.ar    1  UNL1       -0.0026
@<TRIPOS>BOND
     1    18    19    2
     2    19    17    1
     3    17     1    1
     4     1     2    1
     5     2     3    1
     6     3     4    2
     7     3     5   am
     8     5     6    1
     9     6     7    1
    10     7     8    1
    11     8    20    1
    12    20    21    1
    13    21    22   ar
    14    22    23   ar
    15    23    24   ar
    16    24    25   ar
    17    25    26   ar
    18    26    31    1
    19    31    32    2
    20    31    33   am
    21    33    35    1
    22    35    36   ar
    23    36    37   ar
    24    37    38   ar
    25    38    41    1
    26    41    43    1
    27    43    44    1
    28    44    45    1
    29    45    46    1
    30    46    47    1
    31    47    48    1
    32    48    49    1
    33    48    50    1
    34    50    51    1
    35    38    39   ar
    36    39    40   ar
    37    26    27   ar
    38    27    28   ar
    39    28    29    1
    40    28    30   ar
    41     8     9   am
    42     9    10    2
    43     9    11    1
    44    11    53    1
    45    53    54    1
    46    54    55   ar
    47    55    56   ar
    48    56    57   ar
    49    57    58    1
    50    57    59   ar
    51    59    60   ar
    52     6    12    1
    53    12    13   am
    54    13    14    2
    55    13    15   am
    56    15    62    1
    57    62    63    1
    58    63    64   ar
    59    64    65   ar
    60    65    66   ar
    61    66    67   ar
    62    67    68   ar
    63    12     1    1
    64    68    63   ar
    65    11     5    1
    66    60    54   ar
    67    30    21   ar
    68    30    25   ar
    69    40    35   ar
    70    51    45    1
    71    33    34    1
    72    41    42    1
    73    49    52    1
    74    58    61    1
    75    15    16    1
@<TRIPOS>MOLECULE
*****
 68 75 0 0 0
SMALL
GASTEIGER

@<TRIPOS>ATOM
      1 N          65.3328   89.2593   14.5019 N.3     1  UNL1       -0.1862
      2 C          65.5318   88.0059   15.3016 C.3     1  UNL1        0.1775
      3 C          64.7452   86.7723   14.9707 C.2     1  UNL1        0.2452
      4 O          64.9443   85.5189   15.7704 O.2     1  UNL1       -0.2732
      5 N          63.7595   86.7921   13.8402 N.am    1  UNL1       -0.2541
      6 C          63.5605   88.0455   13.0406 C.3     1  UNL1        0.1908
      7 C          62.5748   88.0653   11.9101 C.3     1  UNL1        0.1359
      8 N          61.7882   86.8317   11.5792 N.am    1  UNL1       -0.2705
      9 C          61.9872   85.5783   12.3789 C.2     1  UNL1        0.2445
     10 O          61.2006   84.3447   12.0480 O.2     1  UNL1       -0.2731
     11 C          62.9729   85.5585   13.5094 C.3     1  UNL1        0.1577
     12 N          64.3472   89.2791   13.3715 N.am    1  UNL1       -0.1863
     13 C          64.1481   90.5325   12.5718 C.2     1  UNL1        0.3191
     14 O          63.1624   90.5522   11.4413 O.2     1  UNL1       -0.2512
     15 N          64.9347   91.7660   12.9026 N.am    1  UNL1       -0.2836
     16 H          65.5817   91.7530   13.6446 H       1  UNL1        0.1513
     17 C          66.1195   90.4929   14.8328 C.3     1  UNL1        0.1188
     18 C          64.1493   91.3745   16.2789 C.2     1  UNL1       -0.0034
     19 C          65.4929   91.5862   15.6464 C.2     1  UNL1       -0.0071
     20 C          60.8025   86.8515   10.4487 C.3     1  UNL1        0.1217
     21 C          60.3833   88.1577    9.8419 C.ar    1  UNL1        0.0135
     22 C          60.0946   89.3361   10.7239 C.ar    1  UNL1       -0.0012
     23 C          59.6754   90.6423   10.1172 C.ar    1  UNL1       -0.0002
     24 C          59.5450   90.7700    8.6284 C.ar    1  UNL1        0.0016
     25 C          59.8337   89.5916    7.7463 C.ar    1  UNL1        0.0214
     26 C          59.7911   89.4184    6.2570 C.ar    1  UNL1        0.0722
     27 C          60.1839   88.0051    5.9433 C.ar    1  UNL1        0.0805
     28 N          60.4693   87.3050    7.2387 N.ar    1  UNL1       -0.3241
     29 C          60.8962   85.8753    7.3928 C.3     1  UNL1        0.1305
     30 C          60.2529   88.2855    8.3531 C.ar    1  UNL1        0.0577
     31 C          59.4206   90.4732    5.2568 C.2     1  UNL1        0.2510
     32 O          57.9806   90.8403    5.0525 O.2     1  UNL1       -0.2698
     33 N          60.4901   91.1610    4.4612 N.am    1  UNL1       -0.2791
     34 H          61.4352   90.9200    4.5953 H       1  UNL1        0.1552
     35 C          60.1198   92.2158    3.4611 C.ar    1  UNL1        0.0701
     36 C          59.8079   91.8304    2.0454 C.ar    1  UNL1        0.0191
     37 C          59.4375   92.8852    1.0452 C.ar    1  UNL1        0.0354
     38 C          59.3791   94.3253    1.4608 C.ar    1  UNL1        0.1286
     39 N          59.6910   94.7106    2.8765 N.ar    1  UNL1       -0.2281
     40 C          60.0613   93.6559    3.8767 C.ar    1  UNL1        0.1149
     41 N          59.0087   95.3801    0.4607 N.pl3   1  UNL1       -0.3169
     42 H          58.0634   95.6185    0.3240 H       1  UNL1        0.1482
     43 C          60.0787   96.0717   -0.3310 C.3     1  UNL1        0.1057
     44 C          61.3565   96.4860    0.3366 C.3     1  UNL1        0.0936
     45 N          62.5195   95.5399    0.3830 N.3     1  UNL1       -0.2711
     46 C          62.8940   94.8744    1.6740 C.3     1  UNL1        0.0746
     47 C          64.0571   93.9283    1.7202 C.3     1  UNL1        0.0466
     48 C          64.8456   93.6477    0.4755 C.3     1  UNL1        0.1133
     49 O          66.0087   92.7016    0.5218 O.3     1  UNL1       -0.3844
     50 C          64.4711   94.3132   -0.8156 C.3     1  UNL1        0.0466
     51 C          63.3080   95.2593   -0.8618 C.3     1  UNL1        0.0746
     52 H          66.1137   92.3622    1.4244 H       1  UNL1        0.2103
     53 C          63.1719   84.3052   14.3090 C.3     1  UNL1        0.0556
     54 C          63.0264   82.9649   13.6513 C.ar    1  UNL1       -0.0198
     55 C          63.8200   82.6437   12.4197 C.ar    1  UNL1       -0.0011
     56 C          63.6745   81.3035   11.7620 C.ar    1  UNL1        0.0363
     57 C          62.7354   80.2844   12.3360 C.ar    1  UNL1        0.1337
     58 O          62.5899   78.9441   11.6783 O.3     1  UNL1       -0.5055
     59 C          61.9417   80.6055   13.5677 C.ar    1  UNL1        0.0363
     60 C          62.0872   81.9458   14.2254 C.ar    1  UNL1       -0.0011
     61 H          63.0856   78.7435   10.9089 H       1  UNL1        0.2922
     62 C          64.7357   93.0194   12.1030 C.3     1  UNL1        0.1177
     63 C          65.7677   93.4404   11.0992 C.ar    1  UNL1       -0.0025
     64 C          65.7669   94.8423   10.5655 C.ar    1  UNL1       -0.0026
     65 C          66.7988   95.2633    9.5617 C.ar    1  UNL1       -0.0003
     66 C          67.8317   94.2824    9.0914 C.ar    1  UNL1       -0.0000
     67 C          67.8325   92.8805    9.6250 C.ar    1  UNL1       -0.0003
     68 C          66.8006   92.4595   10.6289 C.ar    1  UNL1       -0.0026
@<TRIPOS>BOND
     1    18    19    2
     2    19    17    1
     3    17     1    1
     4     1     2    1
     5     2     3    1
     6     3     4    2
     7     3     5   am
     8     5     6    1
     9     6     7    1
    10     7     8    1
    11     8    20    1
    12    20    21    1
    13    21    22   ar
    14    22    23   ar
    15    23    24   ar
    16    24    25   ar
    17    25    26   ar
    18    26    31    1
    19    31    32    2
    20    31    33   am
    21    33    35    1
    22    35    36   ar
    23    36    37   ar
    24    37    38   ar
    25    38    41    1
    26    41    43    1
    27    43    44    1
    28    44    45    1
    29    45    46    1
    30    46    47    1
    31    47    48    1
    32    48    49    1
    33    48    50    1
    34    50    51    1
    35    38    39   ar
    36    39    40   ar
    37    26    27   ar
    38    27    28   ar
    39    28    29    1
    40    28    30   ar
    41     8     9   am
    42     9    10    2
    43     9    11    1
    44    11    53    1
    45    53    54    1
    46    54    55   ar
    47    55    56   ar
    48    56    57   ar
    49    57    58    1
    50    57    59   ar
    51    59    60   ar
    52     6    12    1
    53    12    13   am
    54    13    14    2
    55    13    15   am
    56    15    62    1
    57    62    63    1
    58    63    64   ar
    59    64    65   ar
    60    65    66   ar
    61    66    67   ar
    62    67    68   ar
    63    12     1    1
    64    68    63   ar
    65    11     5    1
    66    60    54   ar
    67    30    21   ar
    68    30    25   ar
    69    40    35   ar
    70    51    45    1
    71    33    34    1
    72    41    42    1
    73    49    52    1
    74    58    61    1
    75    15    16    1
@<TRIPOS>MOLECULE
*****
 68 75 0 0 0
SMALL
GASTEIGER

@<TRIPOS>ATOM
      1 N          65.6564   90.0365   13.8356 N.3     1  UNL1       -0.1862
      2 C          66.0881   88.8952   14.7080 C.3     1  UNL1        0.1775
      3 C          65.2948   87.6222   14.7247 C.2     1  UNL1        0.2452
      4 O          65.7265   86.4809   15.5972 O.2     1  UNL1       -0.2732
      5 N          64.0699   87.4905   13.8691 N.am    1  UNL1       -0.2541
      6 C          63.6382   88.6318   12.9967 C.3     1  UNL1        0.1908
      7 C          62.4132   88.5002   12.1410 C.3     1  UNL1        0.1359
      8 N          61.6200   87.2273   12.1577 N.am    1  UNL1       -0.2705
      9 C          62.0516   86.0859   13.0301 C.2     1  UNL1        0.2445
     10 O          61.2584   84.8130   13.0468 O.2     1  UNL1       -0.2731
     11 C          63.2766   86.2176   13.8858 C.3     1  UNL1        0.1577
     12 N          64.4315   89.9048   12.9800 N.am    1  UNL1       -0.1863
     13 C          63.9998   91.0461   12.1075 C.2     1  UNL1        0.3191
     14 O          62.7749   90.9145   11.2519 O.2     1  UNL1       -0.2512
     15 N          64.7931   92.3191   12.0908 N.am    1  UNL1       -0.2836
     16 H          65.5971   92.4055   12.6524 H       1  UNL1        0.1513
     17 C          66.4497   91.3094   13.8189 C.3     1  UNL1        0.1188
     18 C          68.0018   91.9861   15.7895 C.2     1  UNL1       -0.0034
     19 C          66.6761   92.0688   15.0925 C.2     1  UNL1       -0.0071
     20 C          60.3950   87.0956   11.3020 C.3     1  UNL1        0.1217
     21 C          60.5099   87.1847    9.8090 C.ar    1  UNL1        0.0135
     22 C          60.9631   85.9927    9.0193 C.ar    1  UNL1       -0.0012
     23 C          61.0780   86.0817    7.5264 C.ar    1  UNL1       -0.0002
     24 C          60.7397   87.3627    6.8232 C.ar    1  UNL1        0.0016
     25 C          60.2865   88.5547    7.6130 C.ar    1  UNL1        0.0214
     26 C          59.8874   89.9402    7.1992 C.ar    1  UNL1        0.0722
     27 C          59.5259   90.7074    8.4363 C.ar    1  UNL1        0.0805
     28 N          59.7015   89.7961    9.6147 N.ar    1  UNL1       -0.3241
     29 C          59.4511   90.1527   11.0500 C.3     1  UNL1        0.1305
     30 C          60.1716   88.4657    9.1059 C.ar    1  UNL1        0.0577
     31 C          59.8555   90.4661    5.7946 C.2     1  UNL1        0.2510
     32 O          58.6588   90.2135    4.9263 O.2     1  UNL1       -0.2698
     33 N          61.0203   91.2445    5.2586 N.am    1  UNL1       -0.2791
     34 H          61.8057   91.4103    5.8286 H       1  UNL1        0.1552
     35 C          60.9884   91.7704    3.8542 C.ar    1  UNL1        0.0701
     36 C          62.1921   91.6240    2.9711 C.ar    1  UNL1        0.0191
     37 C          62.1603   92.1499    1.5667 C.ar    1  UNL1        0.0354
     38 C          60.9249   92.8221    1.0454 C.ar    1  UNL1        0.1286
     39 N          59.7212   92.9685    1.9285 N.ar    1  UNL1       -0.2281
     40 C          59.7530   92.4426    3.3329 C.ar    1  UNL1        0.1149
     41 N          60.8930   93.3480   -0.3590 N.pl3   1  UNL1       -0.3169
     42 H          61.1640   92.7690   -1.1077 H       1  UNL1        0.1482
     43 C          60.4483   94.7562   -0.6227 C.3     1  UNL1        0.1057
     44 C          59.1956   95.0127   -1.4069 C.3     1  UNL1        0.0936
     45 N          58.3858   93.8612   -1.9247 N.3     1  UNL1       -0.2711
     46 C          58.7026   93.2635   -3.2635 C.3     1  UNL1        0.0746
     47 C          57.8928   92.1119   -3.7813 C.3     1  UNL1        0.0466
     48 C          56.7662   91.5581   -2.9603 C.3     1  UNL1        0.1133
     49 O          55.9565   90.4065   -3.4781 O.3     1  UNL1       -0.3844
     50 C          56.4495   92.1557   -1.6215 C.3     1  UNL1        0.0466
     51 C          57.2593   93.3073   -1.1037 C.3     1  UNL1        0.0746
     52 H          56.2900   90.1429   -4.3500 H       1  UNL1        0.2103
     53 C          63.7082   85.0763   14.7581 C.3     1  UNL1        0.0556
     54 C          63.4414   83.6633   14.3311 C.ar    1  UNL1       -0.0198
     55 C          62.3014   82.8994   14.9366 C.ar    1  UNL1       -0.0011
     56 C          62.0346   81.4864   14.5096 C.ar    1  UNL1        0.0363
     57 C          62.9080   80.8373   13.4771 C.ar    1  UNL1        0.1337
     58 O          62.6412   79.4244   13.0501 O.3     1  UNL1       -0.5055
     59 C          64.0481   81.6013   12.8716 C.ar    1  UNL1        0.0363
     60 C          64.3148   83.0143   13.2986 C.ar    1  UNL1       -0.0011
     61 H          61.9290   78.9472   13.4284 H       1  UNL1        0.2922
     62 C          64.3615   93.4604   11.2184 C.3     1  UNL1        0.1177
     63 C          65.3865   94.2705   10.4816 C.ar    1  UNL1       -0.0025
     64 C          66.6819   93.6402   10.0639 C.ar    1  UNL1       -0.0026
     65 C          67.7070   94.4504    9.3270 C.ar    1  UNL1       -0.0003
     66 C          67.4366   95.8908    9.0079 C.ar    1  UNL1       -0.0000
     67 C          66.1411   96.5212    9.4256 C.ar    1  UNL1       -0.0003
     68 C          65.1161   95.7111   10.1624 C.ar    1  UNL1       -0.0026
@<TRIPOS>BOND
     1    18    19    2
     2    19    17    1
     3    17     1    1
     4     1     2    1
     5     2     3    1
     6     3     4    2
     7     3     5   am
     8     5     6    1
     9     6     7    1
    10     7     8    1
    11     8    20    1
    12    20    21    1
    13    21    22   ar
    14    22    23   ar
    15    23    24   ar
    16    24    25   ar
    17    25    26   ar
    18    26    31    1
    19    31    32    2
    20    31    33   am
    21    33    35    1
    22    35    36   ar
    23    36    37   ar
    24    37    38   ar
    25    38    41    1
    26    41    43    1
    27    43    44    1
    28    44    45    1
    29    45    46    1
    30    46    47    1
    31    47    48    1
    32    48    49    1
    33    48    50    1
    34    50    51    1
    35    38    39   ar
    36    39    40   ar
    37    26    27   ar
    38    27    28   ar
    39    28    29    1
    40    28    30   ar
    41     8     9   am
    42     9    10    2
    43     9    11    1
    44    11    53    1
    45    53    54    1
    46    54    55   ar
    47    55    56   ar
    48    56    57   ar
    49    57    58    1
    50    57    59   ar
    51    59    60   ar
    52     6    12    1
    53    12    13   am
    54    13    14    2
    55    13    15   am
    56    15    62    1
    57    62    63    1
    58    63    64   ar
    59    64    65   ar
    60    65    66   ar
    61    66    67   ar
    62    67    68   ar
    63    12     1    1
    64    68    63   ar
    65    11     5    1
    66    60    54   ar
    67    30    21   ar
    68    30    25   ar
    69    40    35   ar
    70    51    45    1
    71    33    34    1
    72    41    42    1
    73    49    52    1
    74    58    61    1
    75    15    16    1
@<TRIPOS>MOLECULE
*****
 68 75 0 0 0
SMALL
GASTEIGER

@<TRIPOS>ATOM
      1 N          64.5469   83.1822   13.2458 N.3     1  UNL1       -0.1862
      2 C          65.1705   84.0658   14.2852 C.3     1  UNL1        0.1775
      3 C          64.7525   85.5020   14.3974 C.2     1  UNL1        0.2452
      4 O          65.3761   86.3856   15.4368 O.2     1  UNL1       -0.2732
      5 N          63.7108   86.0546   13.4703 N.am    1  UNL1       -0.2541
      6 C          63.0872   85.1709   12.4310 C.3     1  UNL1        0.1908
      7 C          62.0455   85.7235   11.5038 C.3     1  UNL1        0.1359
      8 N          61.6274   87.1597   11.6161 N.am    1  UNL1       -0.2705
      9 C          62.2511   88.0433   12.6555 C.2     1  UNL1        0.2445
     10 O          61.8331   89.4795   12.7677 O.2     1  UNL1       -0.2731
     11 C          63.2928   87.4907   13.5826 C.3     1  UNL1        0.1577
     12 N          63.5052   83.7348   12.3187 N.am    1  UNL1       -0.1863
     13 C          62.8815   82.8511   11.2793 C.2     1  UNL1        0.3191
     14 O          61.8399   83.4037   10.3522 O.2     1  UNL1       -0.2512
     15 N          63.2996   81.4149   11.1671 N.am    1  UNL1       -0.2836
     16 H          63.9833   81.0523   11.7756 H       1  UNL1        0.1513
     17 C          64.9649   81.7460   13.1336 C.3     1  UNL1        0.1188
     18 C          62.7991   80.6760   14.0897 C.2     1  UNL1       -0.0034
     19 C          64.2946   80.7017   13.9762 C.2     1  UNL1       -0.0071
     20 C          60.5858   87.7123   10.6890 C.3     1  UNL1        0.1217
     21 C          60.9258   88.8486    9.7706 C.ar    1  UNL1        0.0135
     22 C          61.9705   89.8483   10.1695 C.ar    1  UNL1       -0.0012
     23 C          62.3106   90.9846    9.2513 C.ar    1  UNL1       -0.0002
     24 C          61.6060   91.1211    7.9342 C.ar    1  UNL1        0.0016
     25 C          60.5613   90.1213    7.5353 C.ar    1  UNL1        0.0214
     26 C          59.7059   89.9984    6.3093 C.ar    1  UNL1        0.0722
     27 C          58.8371   88.7862    6.4698 C.ar    1  UNL1        0.0805
     28 N          59.1556   88.1600    7.7950 N.ar    1  UNL1       -0.3241
     29 C          58.5201   86.9253    8.3622 C.3     1  UNL1        0.1305
     30 C          60.2212   88.9851    8.4535 C.ar    1  UNL1        0.0577
     31 C          59.7172   90.9252    5.1297 C.2     1  UNL1        0.2510
     32 O          58.4288   91.4834    4.6021 O.2     1  UNL1       -0.2698
     33 N          61.0170   91.2936    4.4779 N.am    1  UNL1       -0.2791
     34 H          61.8626   90.9272    4.8242 H       1  UNL1        0.1552
     35 C          61.0284   92.2202    3.2984 C.ar    1  UNL1        0.0701
     36 C          62.2482   92.3144    2.4305 C.ar    1  UNL1        0.0191
     37 C          62.2597   93.2410    1.2510 C.ar    1  UNL1        0.0354
     38 C          61.0515   94.0735    0.9395 C.ar    1  UNL1        0.1286
     39 N          59.8317   93.9793    1.8074 N.ar    1  UNL1       -0.2281
     40 C          59.8202   93.0527    2.9869 C.ar    1  UNL1        0.1149
     41 N          61.0629   95.0001   -0.2400 N.pl3   1  UNL1       -0.3169
     42 H          61.4979   95.8805   -0.1701 H       1  UNL1        0.1482
     43 C          60.4116   94.5853   -1.5260 C.3     1  UNL1        0.1057
     44 C          58.9387   94.7913   -1.7214 C.3     1  UNL1        0.0936
     45 N          58.0943   93.6848   -2.2805 N.3     1  UNL1       -0.2711
     46 C          58.3560   93.1674   -3.6640 C.3     1  UNL1        0.0746
     47 C          57.5115   92.0609   -4.2230 C.3     1  UNL1        0.0466
     48 C          56.4055   91.4718   -3.3986 C.3     1  UNL1        0.1133
     49 O          55.5611   90.3653   -3.9577 O.3     1  UNL1       -0.3844
     50 C          56.1438   91.9892   -2.0152 C.3     1  UNL1        0.0466
     51 C          56.9883   93.0957   -1.4562 C.3     1  UNL1        0.0746
     52 H          55.8605   90.1520   -4.8554 H       1  UNL1        0.2103
     53 C          63.9164   88.3744   14.6219 C.3     1  UNL1        0.0556
     54 C          64.6094   89.6401   14.2124 C.ar    1  UNL1       -0.0198
     55 C          65.7780   90.1455   15.0053 C.ar    1  UNL1       -0.0011
     56 C          66.4710   91.4113   14.5958 C.ar    1  UNL1        0.0363
     57 C          65.9953   92.1716   13.3935 C.ar    1  UNL1        0.1337
     58 O          66.6883   93.4373   12.9840 O.3     1  UNL1       -0.5055
     59 C          64.8266   91.6661   12.6006 C.ar    1  UNL1        0.0363
     60 C          64.1336   90.4004   13.0100 C.ar    1  UNL1       -0.0011
     61 H          67.4184   93.7531   13.4793 H       1  UNL1        0.2922
     62 C          62.6760   80.5313   10.1277 C.3     1  UNL1        0.1177
     63 C          63.0810   79.0906   10.0272 C.ar    1  UNL1       -0.0025
     64 C          64.0340   78.6525    8.9548 C.ar    1  UNL1       -0.0026
     65 C          64.4390   77.2117    8.8543 C.ar    1  UNL1       -0.0003
     66 C          63.8911   76.2090    9.8260 C.ar    1  UNL1       -0.0000
     67 C          62.9381   76.6471   10.8984 C.ar    1  UNL1       -0.0003
     68 C          62.5331   78.0878   10.9990 C.ar    1  UNL1       -0.0026
@<TRIPOS>BOND
     1    18    19    2
     2    19    17    1
     3    17     1    1
     4     1     2    1
     5     2     3    1
     6     3     4    2
     7     3     5   am
     8     5     6    1
     9     6     7    1
    10     7     8    1
    11     8    20    1
    12    20    21    1
    13    21    22   ar
    14    22    23   ar
    15    23    24   ar
    16    24    25   ar
    17    25    26   ar
    18    26    31    1
    19    31    32    2
    20    31    33   am
    21    33    35    1
    22    35    36   ar
    23    36    37   ar
    24    37    38   ar
    25    38    41    1
    26    41    43    1
    27    43    44    1
    28    44    45    1
    29    45    46    1
    30    46    47    1
    31    47    48    1
    32    48    49    1
    33    48    50    1
    34    50    51    1
    35    38    39   ar
    36    39    40   ar
    37    26    27   ar
    38    27    28   ar
    39    28    29    1
    40    28    30   ar
    41     8     9   am
    42     9    10    2
    43     9    11    1
    44    11    53    1
    45    53    54    1
    46    54    55   ar
    47    55    56   ar
    48    56    57   ar
    49    57    58    1
    50    57    59   ar
    51    59    60   ar
    52     6    12    1
    53    12    13   am
    54    13    14    2
    55    13    15   am
    56    15    62    1
    57    62    63    1
    58    63    64   ar
    59    64    65   ar
    60    65    66   ar
    61    66    67   ar
    62    67    68   ar
    63    12     1    1
    64    68    63   ar
    65    11     5    1
    66    60    54   ar
    67    30    21   ar
    68    30    25   ar
    69    40    35   ar
    70    51    45    1
    71    33    34    1
    72    41    42    1
    73    49    52    1
    74    58    61    1
    75    15    16    1
@<TRIPOS>MOLECULE
*****
 68 75 0 0 0
SMALL
GASTEIGER

@<TRIPOS>ATOM
      1 N          64.5552   83.2067   13.1937 N.3     1  UNL1       -0.1862
      2 C          65.1704   84.0914   14.2371 C.3     1  UNL1        0.1775
      3 C          64.7480   85.5265   14.3476 C.2     1  UNL1        0.2452
      4 O          65.3633   86.4112   15.3910 O.2     1  UNL1       -0.2732
      5 N          63.7104   86.0768   13.4146 N.am    1  UNL1       -0.2541
      6 C          63.0952   85.1921   12.3712 C.3     1  UNL1        0.1908
      7 C          62.0575   85.7424   11.4382 C.3     1  UNL1        0.1359
      8 N          61.6351   87.1774   11.5487 N.am    1  UNL1       -0.2705
      9 C          62.2504   88.0622   12.5921 C.2     1  UNL1        0.2445
     10 O          61.8280   89.4972   12.7026 O.2     1  UNL1       -0.2731
     11 C          63.2880   87.5118   13.5251 C.3     1  UNL1        0.1577
     12 N          63.5176   83.7570   12.2608 N.am    1  UNL1       -0.1863
     13 C          62.9023   82.8723   11.2173 C.2     1  UNL1        0.3191
     14 O          61.8647   83.4226   10.2843 O.2     1  UNL1       -0.2512
     15 N          63.3247   81.4372   11.1068 N.am    1  UNL1       -0.2836
     16 H          64.0058   81.0760   11.7192 H       1  UNL1        0.1513
     17 C          64.9776   81.7716   13.0832 C.3     1  UNL1        0.1188
     18 C          62.8212   80.8591   14.2089 C.2     1  UNL1       -0.0034
     19 C          64.2816   80.7203   13.8957 C.2     1  UNL1       -0.0071
     20 C          60.5975   87.7278   10.6157 C.3     1  UNL1        0.1217
     21 C          60.9360   88.8744    9.7097 C.ar    1  UNL1        0.0135
     22 C          61.9688   89.8795   10.1259 C.ar    1  UNL1       -0.0012
     23 C          62.3073   91.0260    9.2200 C.ar    1  UNL1       -0.0002
     24 C          61.6130   91.1676    7.8979 C.ar    1  UNL1        0.0016
     25 C          60.5802   90.1625    7.4818 C.ar    1  UNL1        0.0214
     26 C          59.7365   90.0427    6.2474 C.ar    1  UNL1        0.0722
     27 C          58.8765   88.8221    6.3904 C.ar    1  UNL1        0.0805
     28 N          59.1888   88.1875    7.7132 N.ar    1  UNL1       -0.3241
     29 C          58.5587   86.9430    8.2646 C.3     1  UNL1        0.1305
     30 C          60.2417   89.0160    8.3877 C.ar    1  UNL1        0.0577
     31 C          59.7503   90.9792    5.0756 C.2     1  UNL1        0.2510
     32 O          58.4641   91.5515    4.5577 O.2     1  UNL1       -0.2698
     33 N          61.0503   91.3433    4.4218 N.am    1  UNL1       -0.2791
     34 H          61.8944   90.9677    4.7618 H       1  UNL1        0.1552
     35 C          61.0642   92.2797    3.2501 C.ar    1  UNL1        0.0701
     36 C          62.1837   92.2177    2.2538 C.ar    1  UNL1        0.0191
     37 C          62.1977   93.1541    1.0821 C.ar    1  UNL1        0.0354
     38 C          61.0921   94.1525    0.9067 C.ar    1  UNL1        0.1286
     39 N          59.9725   94.2146    1.9031 N.ar    1  UNL1       -0.2281
     40 C          59.9586   93.2782    3.0748 C.ar    1  UNL1        0.1149
     41 N          61.1060   95.0889   -0.2650 N.pl3   1  UNL1       -0.3169
     42 H          60.2875   95.2274   -0.7942 H       1  UNL1        0.1482
     43 C          62.3670   95.8145   -0.6304 C.3     1  UNL1        0.1057
     44 C          62.6665   96.1208   -2.0679 C.3     1  UNL1        0.0936
     45 N          63.0357   95.0132   -3.0096 N.3     1  UNL1       -0.2711
     46 C          63.4791   93.6859   -2.4694 C.3     1  UNL1        0.0746
     47 C          63.8482   92.5783   -3.4112 C.3     1  UNL1        0.0466
     48 C          63.7740   92.7980   -4.8931 C.3     1  UNL1        0.1133
     49 O          64.1432   91.6904   -5.8349 O.3     1  UNL1       -0.3844
     50 C          63.3306   94.1253   -5.4334 C.3     1  UNL1        0.0466
     51 C          62.9615   95.2329   -4.4915 C.3     1  UNL1        0.0746
     52 H          64.4049   90.9071   -5.3261 H       1  UNL1        0.2103
     53 C          63.9032   88.3966   14.5685 C.3     1  UNL1        0.0556
     54 C          64.6044   89.6590   14.1628 C.ar    1  UNL1       -0.0198
     55 C          64.1308   90.4284   12.9655 C.ar    1  UNL1       -0.0011
     56 C          64.8319   91.6909   12.5598 C.ar    1  UNL1        0.0363
     57 C          66.0067   92.1840   13.3515 C.ar    1  UNL1        0.1337
     58 O          66.7078   93.4464   12.9458 O.3     1  UNL1       -0.5055
     59 C          66.4803   91.4146   14.5489 C.ar    1  UNL1        0.0363
     60 C          65.7792   90.1521   14.9546 C.ar    1  UNL1       -0.0011
     61 H          66.4120   93.9270   12.1978 H       1  UNL1        0.2922
     62 C          62.7095   80.5525   10.0634 C.3     1  UNL1        0.1177
     63 C          63.0872   79.1026    9.9919 C.ar    1  UNL1       -0.0025
     64 C          64.0738   78.6343    8.9637 C.ar    1  UNL1       -0.0026
     65 C          64.4514   77.1844    8.8923 C.ar    1  UNL1       -0.0003
     66 C          63.8425   76.2028    9.8490 C.ar    1  UNL1       -0.0000
     67 C          62.8558   76.6710   10.8773 C.ar    1  UNL1       -0.0003
     68 C          62.4781   78.1209   10.9488 C.ar    1  UNL1       -0.0026
@<TRIPOS>BOND
     1    18    19    2
     2    19    17    1
     3    17     1    1
     4     1     2    1
     5     2     3    1
     6     3     4    2
     7     3     5   am
     8     5     6    1
     9     6     7    1
    10     7     8    1
    11     8    20    1
    12    20    21    1
    13    21    22   ar
    14    22    23   ar
    15    23    24   ar
    16    24    25   ar
    17    25    26   ar
    18    26    31    1
    19    31    32    2
    20    31    33   am
    21    33    35    1
    22    35    36   ar
    23    36    37   ar
    24    37    38   ar
    25    38    41    1
    26    41    43    1
    27    43    44    1
    28    44    45    1
    29    45    46    1
    30    46    47    1
    31    47    48    1
    32    48    49    1
    33    48    50    1
    34    50    51    1
    35    38    39   ar
    36    39    40   ar
    37    26    27   ar
    38    27    28   ar
    39    28    29    1
    40    28    30   ar
    41     8     9   am
    42     9    10    2
    43     9    11    1
    44    11    53    1
    45    53    54    1
    46    54    55   ar
    47    55    56   ar
    48    56    57   ar
    49    57    58    1
    50    57    59   ar
    51    59    60   ar
    52     6    12    1
    53    12    13   am
    54    13    14    2
    55    13    15   am
    56    15    62    1
    57    62    63    1
    58    63    64   ar
    59    64    65   ar
    60    65    66   ar
    61    66    67   ar
    62    67    68   ar
    63    12     1    1
    64    68    63   ar
    65    11     5    1
    66    60    54   ar
    67    30    21   ar
    68    30    25   ar
    69    40    35   ar
    70    51    45    1
    71    33    34    1
    72    41    42    1
    73    49    52    1
    74    58    61    1
    75    15    16    1
