@<TRIPOS>MOLECULE
*****
 25 28 0 0 0
SMALL
GASTEIGER

@<TRIPOS>ATOM
      1 C          64.8851   91.1990   14.5235 C.ar    1  UNL1        0.0676
      2 C          64.2325   91.6653   15.7909 C.ar    1  UNL1        0.1133
      3 N          63.4769   90.6928   16.6472 N.ar    1  UNL1       -0.2410
      4 C          63.3740   89.2539   16.2361 C.ar    1  UNL1        0.1009
      5 C          64.0267   88.7876   14.9686 C.ar    1  UNL1        0.0442
      6 C          64.7822   89.7601   14.1123 C.ar    1  UNL1        0.0197
      7 C          63.9238   87.3487   14.5575 C.ar    1  UNL1        0.1122
      8 N          63.4926   86.8448   13.2121 N.ar    1  UNL1       -0.2383
      9 C          63.5363   85.3458   13.2426 C.ar    1  UNL1        0.0879
     10 C          63.2181   84.3110   12.2044 C.ar    1  UNL1        0.0196
     11 C          63.3581   82.8536   12.5305 C.ar    1  UNL1        0.0016
     12 C          63.8163   82.4310   13.8949 C.ar    1  UNL1        0.0006
     13 C          64.1345   83.4658   14.9331 C.ar    1  UNL1        0.0080
     14 C          63.9945   84.9231   14.6070 C.ar    1  UNL1        0.0485
     15 S          64.2340   86.1610   15.4196 S.2     1  UNL1       -0.0664
     16 N          65.6407   92.1715   13.6671 N.pl3   1  UNL1       -0.3023
     17 C          67.9136   92.0654   14.9212 C.3     1  UNL1        0.0232
     18 C          66.8587   92.8591   14.2088 C.3     1  UNL1        0.0912
     19 C          65.1782   92.4564   12.2689 C.3     1  UNL1        0.1193
     20 C          66.1058   93.1156   11.2917 C.ar    1  UNL1        0.0168
     21 C          67.1036   92.2925   10.5322 C.ar    1  UNL1        0.0005
     22 C          68.0312   92.9517    9.5550 C.ar    1  UNL1        0.0204
     23 C          67.9611   94.4342    9.3374 C.ar    1  UNL1        0.0989
     24 N          66.9634   95.2574   10.0969 N.ar    1  UNL1       -0.2426
     25 C          66.0357   94.5981   11.0741 C.ar    1  UNL1        0.0962
@<TRIPOS>BOND
     1    17    18    1
     2    18    16    1
     3    16    19    1
     4    19    20    1
     5    20    21   ar
     6    21    22   ar
     7    22    23   ar
     8    23    24   ar
     9    24    25   ar
    10    16     1    1
    11     1     2   ar
    12     2     3   ar
    13     3     4   ar
    14     4     5   ar
    15     5     7    1
    16     7     8   ar
    17     8     9   ar
    18     9    10   ar
    19    10    11   ar
    20    11    12   ar
    21    12    13   ar
    22    13    14   ar
    23    14    15   ar
    24     5     6   ar
    25    25    20   ar
    26     6     1   ar
    27    15     7   ar
    28    14     9   ar
@<TRIPOS>MOLECULE
*****
 25 28 0 0 0
SMALL
GASTEIGER

@<TRIPOS>ATOM
      1 C          65.2709   91.8074   13.9994 C.ar    1  UNL1        0.0676
      2 C          64.8894   91.5765   15.4316 C.ar    1  UNL1        0.1133
      3 N          63.7791   90.6258   15.7680 N.ar    1  UNL1       -0.2410
      4 C          63.0502   89.9060   14.6723 C.ar    1  UNL1        0.1009
      5 C          63.4317   90.1369   13.2401 C.ar    1  UNL1        0.0442
      6 C          64.5420   91.0876   12.9037 C.ar    1  UNL1        0.0197
      7 C          62.7028   89.4170   12.1444 C.ar    1  UNL1        0.1122
      8 N          62.7038   87.9355   11.9100 N.ar    1  UNL1       -0.2383
      9 C          61.8466   87.6551   10.7115 C.ar    1  UNL1        0.0879
     10 C          61.4808   86.3776   10.0158 C.ar    1  UNL1        0.0196
     11 C          60.5842   86.4084    8.8137 C.ar    1  UNL1        0.0016
     12 C          60.0533   87.7167    8.3073 C.ar    1  UNL1        0.0006
     13 C          60.4191   88.9943    9.0030 C.ar    1  UNL1        0.0080
     14 C          61.3157   88.9635   10.2051 C.ar    1  UNL1        0.0485
     15 S          61.8449   90.0524   11.0907 S.2     1  UNL1       -0.0664
     16 N          66.3813   92.7582   13.6629 N.pl3   1  UNL1       -0.3023
     17 C          67.9260   93.5033   15.6145 C.3     1  UNL1        0.0232
     18 C          67.6904   92.6698   14.3898 C.3     1  UNL1        0.0912
     19 C          66.1825   93.7972   12.5995 C.3     1  UNL1        0.1193
     20 C          66.8654   93.6519   11.2719 C.ar    1  UNL1        0.0168
     21 C          67.4447   92.3287   10.8673 C.ar    1  UNL1        0.0005
     22 C          68.1276   92.1834    9.5397 C.ar    1  UNL1        0.0204
     23 C          68.2314   93.3613    8.6168 C.ar    1  UNL1        0.0989
     24 N          67.6522   94.6844    9.0214 N.ar    1  UNL1       -0.2426
     25 C          66.9692   94.8298   10.3490 C.ar    1  UNL1        0.0962
@<TRIPOS>BOND
     1    17    18    1
     2    18    16    1
     3    16    19    1
     4    19    20    1
     5    20    21   ar
     6    21    22   ar
     7    22    23   ar
     8    23    24   ar
     9    24    25   ar
    10    16     1    1
    11     1     2   ar
    12     2     3   ar
    13     3     4   ar
    14     4     5   ar
    15     5     7    1
    16     7     8   ar
    17     8     9   ar
    18     9    10   ar
    19    10    11   ar
    20    11    12   ar
    21    12    13   ar
    22    13    14   ar
    23    14    15   ar
    24     5     6   ar
    25    25    20   ar
    26     6     1   ar
    27    15     7   ar
    28    14     9   ar
@<TRIPOS>MOLECULE
*****
 25 28 0 0 0
SMALL
GASTEIGER

@<TRIPOS>ATOM
      1 C          63.5179   83.6567   12.9123 C.ar    1  UNL1        0.0676
      2 C          64.4555   82.7628   12.1563 C.ar    1  UNL1        0.1133
      3 N          64.5688   82.8840   10.6655 N.ar    1  UNL1       -0.2410
      4 C          63.7445   83.8993    9.9308 C.ar    1  UNL1        0.1009
      5 C          62.8069   84.7933   10.6869 C.ar    1  UNL1        0.0442
      6 C          62.6936   84.6720   12.1777 C.ar    1  UNL1        0.0197
      7 C          61.9826   85.8085    9.9522 C.ar    1  UNL1        0.1122
      8 N          61.0083   85.5214    8.8485 N.ar    1  UNL1       -0.2383
      9 C          60.4114   86.8246    8.4064 C.ar    1  UNL1        0.0879
     10 C          59.3948   87.1576    7.3549 C.ar    1  UNL1        0.0196
     11 C          58.9837   88.5831    7.1339 C.ar    1  UNL1        0.0016
     12 C          59.5892   89.6756    7.9644 C.ar    1  UNL1        0.0006
     13 C          60.6058   89.3427    9.0158 C.ar    1  UNL1        0.0080
     14 C          61.0169   87.9172    9.2369 C.ar    1  UNL1        0.0485
     15 S          61.9879   87.2892   10.1922 S.2     1  UNL1       -0.0664
     16 N          63.4046   83.5355   14.4032 N.pl3   1  UNL1       -0.3023
     17 C          61.7370   81.5575   14.1647 C.3     1  UNL1        0.0232
     18 C          62.3799   82.6204   15.0055 C.3     1  UNL1        0.0912
     19 C          64.3159   84.3292   15.2916 C.3     1  UNL1        0.1193
     20 C          63.9490   85.7301   15.6826 C.ar    1  UNL1        0.0168
     21 C          63.2129   85.9825   16.9650 C.ar    1  UNL1        0.0005
     22 C          62.8460   87.3833   17.3560 C.ar    1  UNL1        0.0204
     23 C          63.2152   88.5319   16.4647 C.ar    1  UNL1        0.0989
     24 N          63.9513   88.2796   15.1824 N.ar    1  UNL1       -0.2426
     25 C          64.3183   86.8787   14.7913 C.ar    1  UNL1        0.0962
@<TRIPOS>BOND
     1    17    18    1
     2    18    16    1
     3    16    19    1
     4    19    20    1
     5    20    21   ar
     6    21    22   ar
     7    22    23   ar
     8    23    24   ar
     9    24    25   ar
    10    16     1    1
    11     1     2   ar
    12     2     3   ar
    13     3     4   ar
    14     4     5   ar
    15     5     7    1
    16     7     8   ar
    17     8     9   ar
    18     9    10   ar
    19    10    11   ar
    20    11    12   ar
    21    12    13   ar
    22    13    14   ar
    23    14    15   ar
    24     5     6   ar
    25    25    20   ar
    26     6     1   ar
    27    15     7   ar
    28    14     9   ar
@<TRIPOS>MOLECULE
*****
 25 28 0 0 0
SMALL
GASTEIGER

@<TRIPOS>ATOM
      1 C          63.5430   89.2157   12.8711 C.ar    1  UNL1        0.0676
      2 C          62.9177   89.8127   11.6454 C.ar    1  UNL1        0.1133
      3 N          62.2351   88.9279   10.6449 N.ar    1  UNL1       -0.2410
      4 C          62.1777   87.4461   10.8701 C.ar    1  UNL1        0.1009
      5 C          62.8029   86.8490   12.0959 C.ar    1  UNL1        0.0442
      6 C          63.4856   87.7338   13.0964 C.ar    1  UNL1        0.0197
      7 C          62.7455   85.3671   12.3211 C.ar    1  UNL1        0.1122
      8 N          62.4036   84.6841   13.6121 N.ar    1  UNL1       -0.2383
      9 C          62.4667   83.2029   13.3838 C.ar    1  UNL1        0.0879
     10 C          62.2266   82.0358   14.2950 C.ar    1  UNL1        0.0196
     11 C          62.3673   80.6363   13.7740 C.ar    1  UNL1        0.0016
     12 C          62.7481   80.4039   12.3419 C.ar    1  UNL1        0.0006
     13 C          62.9883   81.5709   11.4307 C.ar    1  UNL1        0.0080
     14 C          62.8476   82.9705   11.9517 C.ar    1  UNL1        0.0485
     15 S          63.0198   84.3080   11.2950 S.2     1  UNL1       -0.0664
     16 N          64.2257   90.1005   13.8717 N.pl3   1  UNL1       -0.3023
     17 C          63.1220   89.7262   16.1938 C.3     1  UNL1        0.0232
     18 C          64.3293   89.6711   15.3051 C.3     1  UNL1        0.0912
     19 C          64.8048   91.4147   13.4388 C.3     1  UNL1        0.1193
     20 C          66.0623   91.9267   14.0763 C.ar    1  UNL1        0.0168
     21 C          66.0324   92.4446   15.4838 C.ar    1  UNL1        0.0005
     22 C          67.2899   92.9566   16.1214 C.ar    1  UNL1        0.0204
     23 C          68.5773   92.9507   15.3515 C.ar    1  UNL1        0.0989
     24 N          68.6072   92.4328   13.9441 N.ar    1  UNL1       -0.2426
     25 C          67.3496   91.9208   13.3065 C.ar    1  UNL1        0.0962
@<TRIPOS>BOND
     1    17    18    1
     2    18    16    1
     3    16    19    1
     4    19    20    1
     5    20    21   ar
     6    21    22   ar
     7    22    23   ar
     8    23    24   ar
     9    24    25   ar
    10    16     1    1
    11     1     2   ar
    12     2     3   ar
    13     3     4   ar
    14     4     5   ar
    15     5     7    1
    16     7     8   ar
    17     8     9   ar
    18     9    10   ar
    19    10    11   ar
    20    11    12   ar
    21    12    13   ar
    22    13    14   ar
    23    14    15   ar
    24     5     6   ar
    25    25    20   ar
    26     6     1   ar
    27    15     7   ar
    28    14     9   ar
@<TRIPOS>MOLECULE
*****
 25 28 0 0 0
SMALL
GASTEIGER

@<TRIPOS>ATOM
      1 C          64.4618   91.2880   13.0397 C.ar    1  UNL1        0.0676
      2 C          65.0615   92.4581   12.3178 C.ar    1  UNL1        0.1133
      3 N          64.7398   92.6921   10.8716 N.ar    1  UNL1       -0.2410
      4 C          63.8184   91.7560   10.1472 C.ar    1  UNL1        0.1009
      5 C          63.2187   90.5859   10.8691 C.ar    1  UNL1        0.0442
      6 C          63.5404   90.3519   12.3153 C.ar    1  UNL1        0.0197
      7 C          62.2973   89.6498   10.1447 C.ar    1  UNL1        0.1122
      8 N          61.1246   90.0466    9.2978 N.ar    1  UNL1       -0.2383
      9 C          60.4893   88.7946    8.7697 C.ar    1  UNL1        0.0879
     10 C          59.3014   88.5693    7.8821 C.ar    1  UNL1        0.0196
     11 C          58.8934   87.1733    7.5151 C.ar    1  UNL1        0.0016
     12 C          59.6735   86.0026    8.0357 C.ar    1  UNL1        0.0006
     13 C          60.8615   86.2279    8.9233 C.ar    1  UNL1        0.0080
     14 C          61.2694   87.6239    9.2903 C.ar    1  UNL1        0.0485
     15 S          62.3868   88.1525   10.1401 S.2     1  UNL1       -0.0664
     16 N          64.7835   91.0540   14.4860 N.pl3   1  UNL1       -0.3023
     17 C          66.2782   92.5613   15.9841 C.3     1  UNL1        0.0232
     18 C          66.1360   91.4191   15.0221 C.3     1  UNL1        0.0912
     19 C          63.7527   90.4548   15.3962 C.3     1  UNL1        0.1193
     20 C          63.7324   88.9741   15.6345 C.ar    1  UNL1        0.0168
     21 C          64.4397   88.0520   14.6860 C.ar    1  UNL1        0.0005
     22 C          64.4194   86.5712   14.9243 C.ar    1  UNL1        0.0204
     23 C          63.6918   86.0124   16.1111 C.ar    1  UNL1        0.0989
     24 N          62.9845   86.9344   17.0595 N.ar    1  UNL1       -0.2426
     25 C          63.0048   88.4153   16.8213 C.ar    1  UNL1        0.0962
@<TRIPOS>BOND
     1    17    18    1
     2    18    16    1
     3    16    19    1
     4    19    20    1
     5    20    21   ar
     6    21    22   ar
     7    22    23   ar
     8    23    24   ar
     9    24    25   ar
    10    16     1    1
    11     1     2   ar
    12     2     3   ar
    13     3     4   ar
    14     4     5   ar
    15     5     7    1
    16     7     8   ar
    17     8     9   ar
    18     9    10   ar
    19    10    11   ar
    20    11    12   ar
    21    12    13   ar
    22    13    14   ar
    23    14    15   ar
    24     5     6   ar
    25    25    20   ar
    26     6     1   ar
    27    15     7   ar
    28    14     9   ar
@<TRIPOS>MOLECULE
*****
 25 28 0 0 0
SMALL
GASTEIGER

@<TRIPOS>ATOM
      1 C          61.4504   87.6442    9.2908 C.ar    1  UNL1        0.0676
      2 C          60.1014   88.2603    9.0660 C.ar    1  UNL1        0.1133
      3 N          59.7654   89.5800    9.6948 N.ar    1  UNL1       -0.2410
      4 C          60.7785   90.2837   10.5483 C.ar    1  UNL1        0.1009
      5 C          62.1275   89.6677   10.7731 C.ar    1  UNL1        0.0442
      6 C          62.4635   88.3480   10.1443 C.ar    1  UNL1        0.0197
      7 C          63.1406   90.3714   11.6266 C.ar    1  UNL1        0.1122
      8 N          63.9901   91.5348   11.2086 N.ar    1  UNL1       -0.2383
      9 C          64.8566   91.9177   12.3716 C.ar    1  UNL1        0.0879
     10 C          65.8909   92.9905   12.5423 C.ar    1  UNL1        0.0196
     11 C          66.6112   93.1365   13.8499 C.ar    1  UNL1        0.0016
     12 C          66.2972   92.2097   14.9867 C.ar    1  UNL1        0.0006
     13 C          65.2629   91.1369   14.8160 C.ar    1  UNL1        0.0080
     14 C          64.5426   90.9909   13.5084 C.ar    1  UNL1        0.0485
     15 S          63.4820   90.0353   13.0480 S.2     1  UNL1       -0.0664
     16 N          61.7864   86.3244    8.6621 N.pl3   1  UNL1       -0.3023
     17 C          61.3294   84.8247    6.5903 C.3     1  UNL1        0.0232
     18 C          60.8203   85.6774    7.7146 C.3     1  UNL1        0.0912
     19 C          63.0887   85.6517    8.9809 C.3     1  UNL1        0.1193
     20 C          63.1578   84.6348   10.0813 C.ar    1  UNL1        0.0168
     21 C          63.9209   83.3596    9.8773 C.ar    1  UNL1        0.0005
     22 C          63.9901   82.3426   10.9777 C.ar    1  UNL1        0.0204
     23 C          63.2962   82.6008   12.2822 C.ar    1  UNL1        0.0989
     24 N          62.5331   83.8760   12.4863 N.ar    1  UNL1       -0.2426
     25 C          62.4639   84.8930   11.3858 C.ar    1  UNL1        0.0962
@<TRIPOS>BOND
     1    17    18    1
     2    18    16    1
     3    16    19    1
     4    19    20    1
     5    20    21   ar
     6    21    22   ar
     7    22    23   ar
     8    23    24   ar
     9    24    25   ar
    10    16     1    1
    11     1     2   ar
    12     2     3   ar
    13     3     4   ar
    14     4     5   ar
    15     5     7    1
    16     7     8   ar
    17     8     9   ar
    18     9    10   ar
    19    10    11   ar
    20    11    12   ar
    21    12    13   ar
    22    13    14   ar
    23    14    15   ar
    24     5     6   ar
    25    25    20   ar
    26     6     1   ar
    27    15     7   ar
    28    14     9   ar
@<TRIPOS>MOLECULE
*****
 25 28 0 0 0
SMALL
GASTEIGER

@<TRIPOS>ATOM
      1 C          63.5239   86.0999   15.5949 C.ar    1  UNL1        0.0676
      2 C          63.0078   86.3798   16.9752 C.ar    1  UNL1        0.1133
      3 N          62.9329   87.7918   17.4759 N.ar    1  UNL1       -0.2410
      4 C          63.3742   88.9238   16.5963 C.ar    1  UNL1        0.1009
      5 C          63.8903   88.6440   15.2161 C.ar    1  UNL1        0.0442
      6 C          63.9652   87.2320   14.7154 C.ar    1  UNL1        0.0197
      7 C          64.3316   89.7761   14.3365 C.ar    1  UNL1        0.1122
      8 N          65.3396   90.8282   14.6927 N.ar    1  UNL1       -0.2383
      9 C          65.4733   91.7572   13.5226 C.ar    1  UNL1        0.0879
     10 C          66.3181   92.9766   13.3006 C.ar    1  UNL1        0.0196
     11 C          66.2376   93.7179   11.9992 C.ar    1  UNL1        0.0016
     12 C          65.3122   93.2399   10.9197 C.ar    1  UNL1        0.0006
     13 C          64.4674   92.0206   11.1417 C.ar    1  UNL1        0.0080
     14 C          64.5480   91.2792   12.4432 C.ar    1  UNL1        0.0485
     15 S          63.8423   90.0548   12.9462 S.2     1  UNL1       -0.0664
     16 N          63.5988   84.6879   15.0942 N.pl3   1  UNL1       -0.3023
     17 C          62.2208   82.5179   14.7170 C.3     1  UNL1        0.0232
     18 C          62.6290   83.6608   15.5986 C.3     1  UNL1        0.0912
     19 C          64.6436   84.3031   14.0890 C.3     1  UNL1        0.1193
     20 C          64.2597   84.0802   12.6562 C.ar    1  UNL1        0.0168
     21 C          63.2053   84.9369   12.0202 C.ar    1  UNL1        0.0005
     22 C          62.8215   84.7139   10.5874 C.ar    1  UNL1        0.0204
     23 C          63.4919   83.6343    9.7906 C.ar    1  UNL1        0.0989
     24 N          64.5462   82.7776   10.4265 N.ar    1  UNL1       -0.2426
     25 C          64.9301   83.0005   11.8594 C.ar    1  UNL1        0.0962
@<TRIPOS>BOND
     1    17    18    1
     2    18    16    1
     3    16    19    1
     4    19    20    1
     5    20    21   ar
     6    21    22   ar
     7    22    23   ar
     8    23    24   ar
     9    24    25   ar
    10    16     1    1
    11     1     2   ar
    12     2     3   ar
    13     3     4   ar
    14     4     5   ar
    15     5     7    1
    16     7     8   ar
    17     8     9   ar
    18     9    10   ar
    19    10    11   ar
    20    11    12   ar
    21    12    13   ar
    22    13    14   ar
    23    14    15   ar
    24     5     6   ar
    25    25    20   ar
    26     6     1   ar
    27    15     7   ar
    28    14     9   ar
@<TRIPOS>MOLECULE
*****
 25 28 0 0 0
SMALL
GASTEIGER

@<TRIPOS>ATOM
      1 C          61.8034   87.0488   10.7202 C.ar    1  UNL1        0.0676
      2 C          60.3391   87.3518   10.8377 C.ar    1  UNL1        0.1133
      3 N          59.8857   88.6094   11.5180 N.ar    1  UNL1       -0.2410
      4 C          60.8966   89.5640   12.0808 C.ar    1  UNL1        0.1009
      5 C          62.3610   89.2610   11.9634 C.ar    1  UNL1        0.0442
      6 C          62.8144   88.0034   11.2831 C.ar    1  UNL1        0.0197
      7 C          63.3719   90.2155   12.5262 C.ar    1  UNL1        0.1122
      8 N          63.9187   90.1984   13.9229 N.ar    1  UNL1       -0.2383
      9 C          64.8983   91.3271   14.0511 C.ar    1  UNL1        0.0879
     10 C          65.7444   91.7964   15.1973 C.ar    1  UNL1        0.0196
     11 C          66.6492   92.9804   15.0260 C.ar    1  UNL1        0.0016
     12 C          66.7079   93.6951   13.7085 C.ar    1  UNL1        0.0006
     13 C          65.8617   93.2258   12.5624 C.ar    1  UNL1        0.0080
     14 C          64.9569   92.0418   12.7337 C.ar    1  UNL1        0.0485
     15 S          64.0136   91.3548   11.7912 S.2     1  UNL1       -0.0664
     16 N          62.2569   85.7912   10.0399 N.pl3   1  UNL1       -0.3023
     17 C          62.6242   85.0353    7.5815 C.3     1  UNL1        0.0232
     18 C          61.6992   85.4218    8.6973 C.3     1  UNL1        0.0912
     19 C          63.2680   84.9029   10.7022 C.3     1  UNL1        0.1193
     20 C          62.8759   84.0763   11.8908 C.ar    1  UNL1        0.0168
     21 C          62.6234   82.6062   11.7316 C.ar    1  UNL1        0.0005
     22 C          62.2313   81.7796   12.9202 C.ar    1  UNL1        0.0204
     23 C          62.0916   82.4229   14.2681 C.ar    1  UNL1        0.0989
     24 N          62.3440   83.8929   14.4273 N.ar    1  UNL1       -0.2426
     25 C          62.7362   84.7196   13.2386 C.ar    1  UNL1        0.0962
@<TRIPOS>BOND
     1    17    18    1
     2    18    16    1
     3    16    19    1
     4    19    20    1
     5    20    21   ar
     6    21    22   ar
     7    22    23   ar
     8    23    24   ar
     9    24    25   ar
    10    16     1    1
    11     1     2   ar
    12     2     3   ar
    13     3     4   ar
    14     4     5   ar
    15     5     7    1
    16     7     8   ar
    17     8     9   ar
    18     9    10   ar
    19    10    11   ar
    20    11    12   ar
    21    12    13   ar
    22    13    14   ar
    23    14    15   ar
    24     5     6   ar
    25    25    20   ar
    26     6     1   ar
    27    15     7   ar
    28    14     9   ar
@<TRIPOS>MOLECULE
*****
 25 28 0 0 0
SMALL
GASTEIGER

@<TRIPOS>ATOM
      1 C          63.7272   86.4912   15.1415 C.ar    1  UNL1        0.0676
      2 C          63.1470   86.7030   16.5084 C.ar    1  UNL1        0.1133
      3 N          63.0090   88.0920   17.0575 N.ar    1  UNL1       -0.2410
      4 C          63.4513   89.2692   16.2397 C.ar    1  UNL1        0.1009
      5 C          64.0315   89.0573   14.8729 C.ar    1  UNL1        0.0442
      6 C          64.1695   87.6683   14.3237 C.ar    1  UNL1        0.0197
      7 C          64.4738   90.2345   14.0551 C.ar    1  UNL1        0.1122
      8 N          64.0654   90.5300   12.6424 N.ar    1  UNL1       -0.2383
      9 C          64.7413   91.8010   12.2206 C.ar    1  UNL1        0.0879
     10 C          64.7113   92.5754   10.9364 C.ar    1  UNL1        0.0196
     11 C          65.5074   93.8398   10.8043 C.ar    1  UNL1        0.0016
     12 C          66.3335   94.3298   11.9564 C.ar    1  UNL1        0.0006
     13 C          66.3636   93.5554   13.2407 C.ar    1  UNL1        0.0080
     14 C          65.5675   92.2910   13.3728 C.ar    1  UNL1        0.0485
     15 S          65.4021   91.3228   14.5065 S.2     1  UNL1       -0.0664
     16 N          63.8652   85.1021   14.5923 N.pl3   1  UNL1       -0.3023
     17 C          66.4488   84.8279   14.5860 C.3     1  UNL1        0.0232
     18 C          65.0860   84.2892   14.9066 C.3     1  UNL1        0.0912
     19 C          62.7824   84.5260   13.7288 C.3     1  UNL1        0.1193
     20 C          62.9258   84.5414   12.2358 C.ar    1  UNL1        0.0168
     21 C          63.7475   83.4902   11.5504 C.ar    1  UNL1        0.0005
     22 C          63.8909   83.5056   10.0574 C.ar    1  UNL1        0.0204
     23 C          63.2126   84.5721    9.2497 C.ar    1  UNL1        0.0989
     24 N          62.3909   85.6233    9.9350 N.ar    1  UNL1       -0.2426
     25 C          62.2475   85.6080   11.4281 C.ar    1  UNL1        0.0962
@<TRIPOS>BOND
     1    17    18    1
     2    18    16    1
     3    16    19    1
     4    19    20    1
     5    20    21   ar
     6    21    22   ar
     7    22    23   ar
     8    23    24   ar
     9    24    25   ar
    10    16     1    1
    11     1     2   ar
    12     2     3   ar
    13     3     4   ar
    14     4     5   ar
    15     5     7    1
    16     7     8   ar
    17     8     9   ar
    18     9    10   ar
    19    10    11   ar
    20    11    12   ar
    21    12    13   ar
    22    13    14   ar
    23    14    15   ar
    24     5     6   ar
    25    25    20   ar
    26     6     1   ar
    27    15     7   ar
    28    14     9   ar
