@<TRIPOS>MOLECULE
*****
 26 29 0 0 0
SMALL
GASTEIGER

@<TRIPOS>ATOM
      1 C          62.1255   89.1459   11.7373 C.3     1  UNL1        0.1199
      2 C          62.3918   87.7268   11.3312 C.ar    1  UNL1        0.0096
      3 C          62.9693   86.7590   12.3211 C.ar    1  UNL1       -0.0007
      4 C          63.2356   85.3398   11.9148 C.ar    1  UNL1        0.0112
      5 C          62.9242   84.8883   10.5187 C.ar    1  UNL1        0.0585
      6 CL         63.1905   83.4692   10.1124 Cl      1  UNL1       -0.0822
      7 C          62.3467   85.8560    9.5287 C.ar    1  UNL1        0.0225
      8 C          62.0804   87.2752    9.9350 C.ar    1  UNL1        0.0563
      9 CL         61.5029   88.2430    8.9451 Cl      1  UNL1       -0.0825
     10 C          64.0219   90.0834   13.3714 C.2     1  UNL1        0.0044
     11 C          65.0781   91.1439   13.2722 C.2     1  UNL1        0.0946
     12 N          64.9777   91.7725   11.9140 N.2     1  UNL1       -0.2469
     13 C          63.8594   91.1006   11.1737 C.2     1  UNL1        0.0787
     14 C          63.2687   90.0567   12.0744 C.3     1  UNL1        0.0901
     15 CL         62.9908   86.5660   18.1216 Cl      1  UNL1       -0.0822
     16 C          63.2486   87.4453   16.9340 C.ar    1  UNL1        0.0577
     17 C          62.7370   88.8553   16.9197 C.ar    1  UNL1        0.0114
     18 C          62.9948   89.7346   15.7321 C.ar    1  UNL1        0.0006
     19 C          63.7641   89.2040   14.5589 C.ar    1  UNL1       -0.0020
     20 C          64.2757   87.7941   14.5733 C.ar    1  UNL1        0.0006
     21 C          64.0180   86.9147   15.7608 C.ar    1  UNL1        0.0114
     22 N          60.7159   89.6543   11.8065 N.ar    1  UNL1       -0.3051
     23 C          59.5624   88.9668   12.4747 C.ar    1  UNL1        0.0982
     24 C          58.3460   89.8271   12.3007 C.ar    1  UNL1        0.1193
     25 N          58.7479   91.0464   11.5249 N.ar    1  UNL1       -0.2223
     26 C          60.2125   90.9396   11.2194 C.ar    1  UNL1        0.1788
@<TRIPOS>BOND
     1    15    16    1
     2    16    17   ar
     3    17    18   ar
     4    18    19   ar
     5    19    10    1
     6    10    11    2
     7    11    12    1
     8    12    13    2
     9    13    14    1
    10    14     1    1
    11     1     2    1
    12     2     3   ar
    13     3     4   ar
    14     4     5   ar
    15     5     6    1
    16     5     7   ar
    17     7     8   ar
    18     8     9    1
    19     1    22    1
    20    22    23   ar
    21    23    24   ar
    22    24    25   ar
    23    25    26   ar
    24    19    20   ar
    25    20    21   ar
    26    21    16   ar
    27    14    10    1
    28     8     2   ar
    29    26    22   ar
@<TRIPOS>MOLECULE
*****
 26 29 0 0 0
SMALL
GASTEIGER

@<TRIPOS>ATOM
      1 C          61.5155   87.0501   10.6418 C.3     1  UNL1        0.1199
      2 C          61.5838   86.3395    9.3227 C.ar    1  UNL1        0.0096
      3 C          62.8725   85.7188    8.8708 C.ar    1  UNL1       -0.0007
      4 C          62.9407   85.0082    7.5516 C.ar    1  UNL1        0.0112
      5 C          61.7203   84.9182    6.6842 C.ar    1  UNL1        0.0585
      6 CL         61.7885   84.2076    5.3649 Cl      1  UNL1       -0.0822
      7 C          60.4316   85.5389    7.1359 C.ar    1  UNL1        0.0225
      8 C          60.3634   86.2495    8.4551 C.ar    1  UNL1        0.0563
      9 CL         59.0747   86.8702    8.9069 Cl      1  UNL1       -0.0825
     10 C          63.1589   87.2026   12.7444 C.2     1  UNL1        0.0044
     11 C          63.6110   86.2472   13.8088 C.2     1  UNL1        0.0946
     12 N          62.9402   84.9282   13.5630 N.2     1  UNL1       -0.2469
     13 C          62.0736   85.0684   12.3467 C.2     1  UNL1        0.0787
     14 C          62.2088   86.4741   11.8408 C.3     1  UNL1        0.0901
     15 CL         64.8537   92.9322   12.1975 Cl      1  UNL1       -0.0822
     16 C          64.4300   91.4998   12.3342 C.ar    1  UNL1        0.0577
     17 C          64.6570   90.7705   13.6251 C.ar    1  UNL1        0.0114
     18 C          64.2333   89.3381   13.7619 C.ar    1  UNL1        0.0006
     19 C          63.5826   88.6350   12.6077 C.ar    1  UNL1       -0.0020
     20 C          63.3556   89.3643   11.3168 C.ar    1  UNL1        0.0006
     21 C          63.7793   90.7967   11.1800 C.ar    1  UNL1        0.0114
     22 N          60.7539   88.3368   10.7620 N.ar    1  UNL1       -0.3051
     23 C          59.8624   88.7305   11.9023 C.ar    1  UNL1        0.0982
     24 C          59.3076   90.0927   11.6080 C.ar    1  UNL1        0.1193
     25 N          59.8563   90.5409   10.2858 N.ar    1  UNL1       -0.2223
     26 C          60.7501   89.4557    9.7630 C.ar    1  UNL1        0.1788
@<TRIPOS>BOND
     1    15    16    1
     2    16    17   ar
     3    17    18   ar
     4    18    19   ar
     5    19    10    1
     6    10    11    2
     7    11    12    1
     8    12    13    2
     9    13    14    1
    10    14     1    1
    11     1     2    1
    12     2     3   ar
    13     3     4   ar
    14     4     5   ar
    15     5     6    1
    16     5     7   ar
    17     7     8   ar
    18     8     9    1
    19     1    22    1
    20    22    23   ar
    21    23    24   ar
    22    24    25   ar
    23    25    26   ar
    24    19    20   ar
    25    20    21   ar
    26    21    16   ar
    27    14    10    1
    28     8     2   ar
    29    26    22   ar
@<TRIPOS>MOLECULE
*****
 26 29 0 0 0
SMALL
GASTEIGER

@<TRIPOS>ATOM
      1 C          62.8445   94.3497   -2.4890 C.3     1  UNL1        0.1199
      2 C          61.3966   94.3367   -2.0976 C.ar    1  UNL1        0.0096
      3 C          60.7662   93.0710   -1.5971 C.ar    1  UNL1       -0.0007
      4 C          59.3182   93.0581   -1.2057 C.ar    1  UNL1        0.0112
      5 C          58.5006   94.3108   -1.3148 C.ar    1  UNL1        0.0585
      6 CL         57.0526   94.2979   -0.9235 Cl      1  UNL1       -0.0822
      7 C          59.1309   95.5766   -1.8154 C.ar    1  UNL1        0.0225
      8 C          60.5789   95.5896   -2.2068 C.ar    1  UNL1        0.0563
      9 CL         61.2092   96.8553   -2.7073 Cl      1  UNL1       -0.0825
     10 C          63.8213   95.0706   -0.1076 C.2     1  UNL1        0.0044
     11 C          65.0206   95.8422    0.3574 C.2     1  UNL1        0.0946
     12 N          65.7946   96.2703   -0.8541 N.2     1  UNL1       -0.2469
     13 C          65.0736   95.7634   -2.0678 C.2     1  UNL1        0.0787
     14 C          63.8541   95.0219   -1.6064 C.3     1  UNL1        0.0901
     15 CL         59.6290   92.6110    3.4102 Cl      1  UNL1       -0.0822
     16 C          60.6771   93.2259    2.5308 C.ar    1  UNL1        0.0577
     17 C          61.8660   92.4174    2.1031 C.ar    1  UNL1        0.0114
     18 C          62.9140   93.0323    1.2237 C.ar    1  UNL1        0.0006
     19 C          62.7732   94.4557    0.7719 C.ar    1  UNL1       -0.0020
     20 C          61.5843   95.2641    1.1995 C.ar    1  UNL1        0.0006
     21 C          60.5362   94.6492    2.0789 C.ar    1  UNL1        0.0114
     22 N          63.2829   93.6904   -3.7631 N.ar    1  UNL1       -0.3051
     23 C          64.2205   92.5250   -3.8755 C.ar    1  UNL1        0.0982
     24 C          64.3778   92.1952   -5.3303 C.ar    1  UNL1        0.1193
     25 N          63.5373   93.1568   -6.1170 N.ar    1  UNL1       -0.2223
     26 C          62.8607   94.0809   -5.1485 C.ar    1  UNL1        0.1788
@<TRIPOS>BOND
     1    15    16    1
     2    16    17   ar
     3    17    18   ar
     4    18    19   ar
     5    19    10    1
     6    10    11    2
     7    11    12    1
     8    12    13    2
     9    13    14    1
    10    14     1    1
    11     1     2    1
    12     2     3   ar
    13     3     4   ar
    14     4     5   ar
    15     5     6    1
    16     5     7   ar
    17     7     8   ar
    18     8     9    1
    19     1    22    1
    20    22    23   ar
    21    23    24   ar
    22    24    25   ar
    23    25    26   ar
    24    19    20   ar
    25    20    21   ar
    26    21    16   ar
    27    14    10    1
    28     8     2   ar
    29    26    22   ar
@<TRIPOS>MOLECULE
*****
 26 29 0 0 0
SMALL
GASTEIGER

@<TRIPOS>ATOM
      1 C          62.7584   89.7020   12.2835 C.3     1  UNL1        0.1199
      2 C          63.7722   90.7870   12.0717 C.ar    1  UNL1        0.0096
      3 C          64.0939   91.2520   10.6824 C.ar    1  UNL1       -0.0007
      4 C          65.1077   92.3371   10.4706 C.ar    1  UNL1        0.0112
      5 C          65.7998   92.9571   11.6481 C.ar    1  UNL1        0.0585
      6 CL         66.8136   94.0422   11.4364 Cl      1  UNL1       -0.0822
      7 C          65.4781   92.4921   13.0375 C.ar    1  UNL1        0.0225
      8 C          64.4643   91.4070   13.2492 C.ar    1  UNL1        0.0563
      9 CL         64.1425   90.9419   14.6386 Cl      1  UNL1       -0.0825
     10 C          62.8862   87.0354   12.1486 C.2     1  UNL1        0.0044
     11 C          63.5140   85.9600   12.9848 C.2     1  UNL1        0.0946
     12 N          64.2085   86.6175   14.1404 N.2     1  UNL1       -0.2469
     13 C          64.0100   88.0992   14.0183 C.2     1  UNL1        0.0787
     14 C          63.1928   88.3575   12.7873 C.3     1  UNL1        0.0901
     15 CL         59.7071   86.1960    7.1297 Cl      1  UNL1       -0.0822
     16 C          60.5019   86.4058    8.3844 C.ar    1  UNL1        0.0577
     17 C          59.8401   86.9723    9.6055 C.ar    1  UNL1        0.0114
     18 C          60.6349   87.1822   10.8602 C.ar    1  UNL1        0.0006
     19 C          62.0914   86.8256   10.8939 C.ar    1  UNL1       -0.0020
     20 C          62.7532   86.2591    9.6728 C.ar    1  UNL1        0.0006
     21 C          61.9584   86.0493    8.4181 C.ar    1  UNL1        0.0114
     22 N          61.3101   89.9614   11.9914 N.ar    1  UNL1       -0.3051
     23 C          60.1504   89.5515   12.8499 C.ar    1  UNL1        0.0982
     24 C          58.8908   90.0131   12.1787 C.ar    1  UNL1        0.1193
     25 N          59.2722   90.7081   10.9054 N.ar    1  UNL1       -0.2223
     26 C          60.7673   90.6762   10.7896 C.ar    1  UNL1        0.1788
@<TRIPOS>BOND
     1    15    16    1
     2    16    17   ar
     3    17    18   ar
     4    18    19   ar
     5    19    10    1
     6    10    11    2
     7    11    12    1
     8    12    13    2
     9    13    14    1
    10    14     1    1
    11     1     2    1
    12     2     3   ar
    13     3     4   ar
    14     4     5   ar
    15     5     6    1
    16     5     7   ar
    17     7     8   ar
    18     8     9    1
    19     1    22    1
    20    22    23   ar
    21    23    24   ar
    22    24    25   ar
    23    25    26   ar
    24    19    20   ar
    25    20    21   ar
    26    21    16   ar
    27    14    10    1
    28     8     2   ar
    29    26    22   ar
@<TRIPOS>MOLECULE
*****
 26 29 0 0 0
SMALL
GASTEIGER

@<TRIPOS>ATOM
      1 C          63.2429   88.9974   13.4373 C.3     1  UNL1        0.1199
      2 C          63.6021   87.5435   13.5194 C.ar    1  UNL1        0.0096
      3 C          64.5413   87.0619   14.5852 C.ar    1  UNL1       -0.0007
      4 C          64.9005   85.6078   14.6672 C.ar    1  UNL1        0.0112
      5 C          64.3205   84.6353   13.6834 C.ar    1  UNL1        0.0585
      6 CL         64.6797   83.1813   13.7654 Cl      1  UNL1       -0.0822
      7 C          63.3813   85.1169   12.6175 C.ar    1  UNL1        0.0225
      8 C          63.0221   86.5709   12.5356 C.ar    1  UNL1        0.0563
      9 CL         62.0829   87.0525   11.4697 Cl      1  UNL1       -0.0825
     10 C          64.4448   91.0909   14.5853 C.2     1  UNL1        0.0044
     11 C          64.4247   91.7068   15.9528 C.2     1  UNL1        0.0946
     12 N          63.4922   90.9029   16.8096 N.2     1  UNL1       -0.2469
     13 C          62.9360   89.7901   15.9716 C.2     1  UNL1        0.0787
     14 C          63.5247   89.9063   14.5969 C.3     1  UNL1        0.0901
     15 CL         67.6439   93.0259    9.8925 Cl      1  UNL1       -0.0822
     16 C          66.8441   92.5422   11.0657 C.ar    1  UNL1        0.0577
     17 C          65.3454   92.5842   11.0203 C.ar    1  UNL1        0.0114
     18 C          64.5457   92.1005   12.1935 C.ar    1  UNL1        0.0006
     19 C          65.2446   91.5747   13.4121 C.ar    1  UNL1       -0.0020
     20 C          66.7433   91.5326   13.4575 C.ar    1  UNL1        0.0006
     21 C          67.5430   92.0164   12.2843 C.ar    1  UNL1        0.0114
     22 N          62.6017   89.5426   12.1956 N.ar    1  UNL1       -0.3051
     23 C          61.1906   90.0370   12.0762 C.ar    1  UNL1        0.0982
     24 C          60.9759   90.4891   10.6621 C.ar    1  UNL1        0.1193
     25 N          62.2544   90.2741    9.9077 N.ar    1  UNL1       -0.2223
     26 C          63.2592   89.6892   10.8554 C.ar    1  UNL1        0.1788
@<TRIPOS>BOND
     1    15    16    1
     2    16    17   ar
     3    17    18   ar
     4    18    19   ar
     5    19    10    1
     6    10    11    2
     7    11    12    1
     8    12    13    2
     9    13    14    1
    10    14     1    1
    11     1     2    1
    12     2     3   ar
    13     3     4   ar
    14     4     5   ar
    15     5     6    1
    16     5     7   ar
    17     7     8   ar
    18     8     9    1
    19     1    22    1
    20    22    23   ar
    21    23    24   ar
    22    24    25   ar
    23    25    26   ar
    24    19    20   ar
    25    20    21   ar
    26    21    16   ar
    27    14    10    1
    28     8     2   ar
    29    26    22   ar
@<TRIPOS>MOLECULE
*****
 26 29 0 0 0
SMALL
GASTEIGER

@<TRIPOS>ATOM
      1 C          59.4118   93.8238   -1.6086 C.3     1  UNL1        0.1199
      2 C          60.1630   93.3854   -0.3865 C.ar    1  UNL1        0.0096
      3 C          60.8875   92.0719   -0.3824 C.ar    1  UNL1       -0.0007
      4 C          61.6386   91.6336    0.8397 C.ar    1  UNL1        0.0112
      5 C          61.6654   92.5086    2.0577 C.ar    1  UNL1        0.0585
      6 CL         62.4166   92.0702    3.2798 Cl      1  UNL1       -0.0822
      7 C          60.9409   93.8221    2.0537 C.ar    1  UNL1        0.0225
      8 C          60.1897   94.2604    0.8316 C.ar    1  UNL1        0.0563
      9 CL         59.4652   95.5739    0.8274 Cl      1  UNL1       -0.0825
     10 C          61.5348   94.8699   -2.8508 C.2     1  UNL1        0.0044
     11 C          61.8899   95.1643   -4.2781 C.2     1  UNL1        0.0946
     12 N          60.7351   94.7457   -5.1390 N.2     1  UNL1       -0.2469
     13 C          59.6662   94.1926   -4.2437 C.2     1  UNL1        0.0787
     14 C          60.1605   94.2693   -2.8296 C.3     1  UNL1        0.0901
     15 CL         65.0028   95.9117    1.9333 Cl      1  UNL1       -0.0822
     16 C          64.1358   95.6512    0.7373 C.ar    1  UNL1        0.0577
     17 C          63.1076   96.6613    0.3221 C.ar    1  UNL1        0.0114
     18 C          62.2406   96.4009   -0.8740 C.ar    1  UNL1        0.0006
     19 C          62.4018   95.1304   -1.6548 C.ar    1  UNL1       -0.0020
     20 C          63.4301   94.1203   -1.2396 C.ar    1  UNL1        0.0006
     21 C          64.2970   94.3807   -0.0436 C.ar    1  UNL1        0.0114
     22 N          57.9117   93.8166   -1.6096 N.ar    1  UNL1       -0.3051
     23 C          57.0244   95.0161   -1.7643 C.ar    1  UNL1        0.0982
     24 C          55.6000   94.5494   -1.7064 C.ar    1  UNL1        0.1193
     25 N          55.6070   93.0616   -1.5159 N.ar    1  UNL1       -0.2223
     26 C          57.0357   92.6087   -1.4560 C.ar    1  UNL1        0.1788
@<TRIPOS>BOND
     1    15    16    1
     2    16    17   ar
     3    17    18   ar
     4    18    19   ar
     5    19    10    1
     6    10    11    2
     7    11    12    1
     8    12    13    2
     9    13    14    1
    10    14     1    1
    11     1     2    1
    12     2     3   ar
    13     3     4   ar
    14     4     5   ar
    15     5     6    1
    16     5     7   ar
    17     7     8   ar
    18     8     9    1
    19     1    22    1
    20    22    23   ar
    21    23    24   ar
    22    24    25   ar
    23    25    26   ar
    24    19    20   ar
    25    20    21   ar
    26    21    16   ar
    27    14    10    1
    28     8     2   ar
    29    26    22   ar
@<TRIPOS>MOLECULE
*****
 26 29 0 0 0
SMALL
GASTEIGER

@<TRIPOS>ATOM
      1 C          62.0879   89.0278   12.0586 C.3     1  UNL1        0.1199
      2 C          63.2260   89.8975   12.5035 C.ar    1  UNL1        0.0096
      3 C          63.8112   89.7245   13.8738 C.ar    1  UNL1       -0.0007
      4 C          64.9494   90.5943   14.3186 C.ar    1  UNL1        0.0112
      5 C          65.5025   91.6371   13.3933 C.ar    1  UNL1        0.0585
      6 CL         66.6407   92.5070   13.8381 Cl      1  UNL1       -0.0822
      7 C          64.9175   91.8103   12.0229 C.ar    1  UNL1        0.0225
      8 C          63.7793   90.9405   11.5781 C.ar    1  UNL1        0.0563
      9 CL         63.1941   91.1135   10.2078 Cl      1  UNL1       -0.0825
     10 C          61.8314   86.9088   10.4495 C.2     1  UNL1        0.0044
     11 C          62.3213   85.4913   10.4761 C.2     1  UNL1        0.0946
     12 N          63.1322   85.3045   11.7241 N.2     1  UNL1       -0.2469
     13 C          63.1435   86.6065   12.4688 C.2     1  UNL1        0.0787
     14 C          62.3395   87.5980   11.6811 C.3     1  UNL1        0.0901
     15 CL         58.4355   89.3867    6.1684 Cl      1  UNL1       -0.0822
     16 C          59.2845   88.7672    7.2387 C.ar    1  UNL1        0.0577
     17 C          59.1484   87.3068    7.5525 C.ar    1  UNL1        0.0114
     18 C          59.9973   86.6873    8.6227 C.ar    1  UNL1        0.0006
     19 C          60.9824   87.5283    9.3792 C.ar    1  UNL1       -0.0020
     20 C          61.1185   88.9887    9.0654 C.ar    1  UNL1        0.0006
     21 C          60.2695   89.6082    7.9952 C.ar    1  UNL1        0.0114
     22 N          60.6979   89.5878   11.9912 N.ar    1  UNL1       -0.3051
     23 C          59.4475   88.9018   12.4558 C.ar    1  UNL1        0.0982
     24 C          58.2912   89.8222   12.1991 C.ar    1  UNL1        0.1193
     25 N          58.8270   91.0770   11.5760 N.ar    1  UNL1       -0.2223
     26 C          60.3144   90.9322   11.4475 C.ar    1  UNL1        0.1788
@<TRIPOS>BOND
     1    15    16    1
     2    16    17   ar
     3    17    18   ar
     4    18    19   ar
     5    19    10    1
     6    10    11    2
     7    11    12    1
     8    12    13    2
     9    13    14    1
    10    14     1    1
    11     1     2    1
    12     2     3   ar
    13     3     4   ar
    14     4     5   ar
    15     5     6    1
    16     5     7   ar
    17     7     8   ar
    18     8     9    1
    19     1    22    1
    20    22    23   ar
    21    23    24   ar
    22    24    25   ar
    23    25    26   ar
    24    19    20   ar
    25    20    21   ar
    26    21    16   ar
    27    14    10    1
    28     8     2   ar
    29    26    22   ar
@<TRIPOS>MOLECULE
*****
 26 29 0 0 0
SMALL
GASTEIGER

@<TRIPOS>ATOM
      1 C          62.2324   93.8969    1.0739 C.3     1  UNL1        0.1199
      2 C          60.9608   93.9459    0.2799 C.ar    1  UNL1        0.0096
      3 C          60.7027   92.9232   -0.7867 C.ar    1  UNL1       -0.0007
      4 C          59.4311   92.9722   -1.5808 C.ar    1  UNL1        0.0112
      5 C          58.4175   94.0439   -1.3083 C.ar    1  UNL1        0.0585
      6 CL         57.1459   94.0929   -2.1024 Cl      1  UNL1       -0.0822
      7 C          58.6756   95.0666   -0.2418 C.ar    1  UNL1        0.0225
      8 C          59.9472   95.0175    0.5523 C.ar    1  UNL1        0.0563
      9 CL         60.2053   96.0402    1.6189 Cl      1  UNL1       -0.0825
     10 C          63.6510   95.5799   -0.4426 C.2     1  UNL1        0.0044
     11 C          64.7525   96.5656   -0.1877 C.2     1  UNL1        0.0946
     12 N          65.0699   96.5374    1.2781 N.2     1  UNL1       -0.2469
     13 C          64.1644   95.5342    1.9291 C.2     1  UNL1        0.0787
     14 C          63.2875   94.9425    0.8656 C.3     1  UNL1        0.0901
     15 CL         61.1396   94.3950   -5.7614 Cl      1  UNL1       -0.0822
     16 C          61.7674   94.6912   -4.4317 C.ar    1  UNL1        0.0577
     17 C          61.2976   95.8656   -3.6254 C.ar    1  UNL1        0.0114
     18 C          61.9255   96.1619   -2.2957 C.ar    1  UNL1        0.0006
     19 C          63.0231   95.2837   -1.7723 C.ar    1  UNL1       -0.0020
     20 C          63.4929   94.1093   -2.5786 C.ar    1  UNL1        0.0006
     21 C          62.8650   93.8131   -3.9082 C.ar    1  UNL1        0.0114
     22 N          62.4488   92.8022    2.0764 N.ar    1  UNL1       -0.3051
     23 C          63.6626   91.9268    2.1777 C.ar    1  UNL1        0.0982
     24 C          63.4534   90.9743    3.3175 C.ar    1  UNL1        0.1193
     25 N          62.1103   91.2611    3.9206 N.ar    1  UNL1       -0.2223
     26 C          61.4894   92.3908    3.1536 C.ar    1  UNL1        0.1788
@<TRIPOS>BOND
     1    15    16    1
     2    16    17   ar
     3    17    18   ar
     4    18    19   ar
     5    19    10    1
     6    10    11    2
     7    11    12    1
     8    12    13    2
     9    13    14    1
    10    14     1    1
    11     1     2    1
    12     2     3   ar
    13     3     4   ar
    14     4     5   ar
    15     5     6    1
    16     5     7   ar
    17     7     8   ar
    18     8     9    1
    19     1    22    1
    20    22    23   ar
    21    23    24   ar
    22    24    25   ar
    23    25    26   ar
    24    19    20   ar
    25    20    21   ar
    26    21    16   ar
    27    14    10    1
    28     8     2   ar
    29    26    22   ar
@<TRIPOS>MOLECULE
*****
 26 29 0 0 0
SMALL
GASTEIGER

@<TRIPOS>ATOM
      1 C          62.7945   89.8025   12.5939 C.3     1  UNL1        0.1199
      2 C          63.7408   90.8347   12.0563 C.ar    1  UNL1        0.0096
      3 C          63.6566   91.2529   10.6182 C.ar    1  UNL1       -0.0007
      4 C          64.6029   92.2851   10.0807 C.ar    1  UNL1        0.0112
      5 C          65.6334   92.8992   10.9811 C.ar    1  UNL1        0.0585
      6 CL         66.5797   93.9315   10.4435 Cl      1  UNL1       -0.0822
      7 C          65.7177   92.4811   12.4192 C.ar    1  UNL1        0.0225
      8 C          64.7714   91.4489   12.9568 C.ar    1  UNL1        0.0563
      9 CL         64.8555   91.0307   14.3949 Cl      1  UNL1       -0.0825
     10 C          60.8618   88.5532   11.2343 C.2     1  UNL1        0.0044
     11 C          59.4361   88.8659   10.8885 C.2     1  UNL1        0.0946
     12 N          59.0984   90.2029   11.4788 N.2     1  UNL1       -0.2469
     13 C          60.3154   90.7165   12.1895 C.2     1  UNL1        0.0787
     14 C          61.4052   89.6969   12.0384 C.3     1  UNL1        0.0901
     15 CL         63.8636   83.5976    9.6751 Cl      1  UNL1       -0.0822
     16 C          63.1131   84.8365   10.0649 C.ar    1  UNL1        0.0577
     17 C          62.9376   85.9497    9.0750 C.ar    1  UNL1        0.0114
     18 C          62.1871   87.1886    9.4648 C.ar    1  UNL1        0.0006
     19 C          61.6122   87.3143   10.8445 C.ar    1  UNL1       -0.0020
     20 C          61.7878   86.2011   11.8344 C.ar    1  UNL1        0.0006
     21 C          62.5382   84.9622   11.4446 C.ar    1  UNL1        0.0114
     22 N          63.2377   88.8758   13.6871 N.ar    1  UNL1       -0.3051
     23 C          64.1160   87.6714   13.5200 C.ar    1  UNL1        0.0982
     24 C          64.3014   87.0422   14.8689 C.ar    1  UNL1        0.1193
     25 N          63.5377   87.8577   15.8697 N.ar    1  UNL1       -0.2223
     26 C          62.8803   88.9910   15.1393 C.ar    1  UNL1        0.1788
@<TRIPOS>BOND
     1    15    16    1
     2    16    17   ar
     3    17    18   ar
     4    18    19   ar
     5    19    10    1
     6    10    11    2
     7    11    12    1
     8    12    13    2
     9    13    14    1
    10    14     1    1
    11     1     2    1
    12     2     3   ar
    13     3     4   ar
    14     4     5   ar
    15     5     6    1
    16     5     7   ar
    17     7     8   ar
    18     8     9    1
    19     1    22    1
    20    22    23   ar
    21    23    24   ar
    22    24    25   ar
    23    25    26   ar
    24    19    20   ar
    25    20    21   ar
    26    21    16   ar
    27    14    10    1
    28     8     2   ar
    29    26    22   ar
