@<TRIPOS>MOLECULE
*****
 22 24 0 0 0
SMALL
GASTEIGER

@<TRIPOS>ATOM
      1 N          65.0734   91.8960   12.2279 N.ar    1  UNL1       -0.2970
      2 C          63.9971   90.9323   12.6311 C.ar    1  UNL1        0.2012
      3 N          64.0431   90.7836   14.1230 N.ar    1  UNL1       -0.2136
      4 C          65.1478   91.6556   14.6419 C.ar    1  UNL1        0.0999
      5 C          65.6562   91.9123   16.0295 C.ar    1  UNL1        0.0207
      6 C          66.8014   92.8565   16.2459 C.ar    1  UNL1        0.0016
      7 C          67.4382   93.5441   15.0747 C.ar    1  UNL1        0.0016
      8 C          66.9298   93.2873   13.6870 C.ar    1  UNL1        0.0188
      9 C          65.7846   92.3431   13.4706 C.ar    1  UNL1        0.0799
     10 N          63.0423   90.2389   11.7049 N.pl3   1  UNL1       -0.2781
     11 C          62.2235   90.8926   10.6315 C.3     1  UNL1        0.0950
     12 C          61.4139   89.8277    9.9528 C.3     1  UNL1        0.0392
     13 C          61.7324   88.5159   10.6067 C.3     1  UNL1        0.0792
     14 C          62.7388   88.7700   11.6896 C.3     1  UNL1        0.1095
     15 N          61.1472   87.1838   10.2419 N.3     1  UNL1       -0.2699
     16 C          60.2256   87.0667    9.0642 C.3     1  UNL1        0.0897
     17 C          61.4837   85.9689   11.0547 C.3     1  UNL1        0.0897
     18 C          65.3841   92.3357   10.8278 C.3     1  UNL1        0.1407
     19 C          65.7972   93.7526   10.5608 C.3     1  UNL1        0.1666
     20 O          67.2504   94.0960   10.4178 O.3     1  UNL1       -0.3517
     21 C          68.7337   92.4389    9.0749 C.3     1  UNL1        0.0346
     22 C          67.9859   93.7363    9.1610 C.3     1  UNL1        0.1423
@<TRIPOS>BOND
     1    21    22    1
     2    22    20    1
     3    20    19    1
     4    19    18    1
     5    18     1    1
     6     1     2   ar
     7     2    10    1
     8    10    11    1
     9    11    12    1
    10    12    13    1
    11    13    15    1
    12    15    16    1
    13    15    17    1
    14    13    14    1
    15     2     3   ar
    16     3     4   ar
    17     4     5   ar
    18     5     6   ar
    19     6     7   ar
    20     7     8   ar
    21     8     9   ar
    22     9     1   ar
    23    14    10    1
    24     9     4   ar
@<TRIPOS>MOLECULE
*****
 22 24 0 0 0
SMALL
GASTEIGER

@<TRIPOS>ATOM
      1 N          62.1424   87.9107   10.9528 N.ar    1  UNL1       -0.2970
      2 C          62.2814   89.3971   11.0985 C.ar    1  UNL1        0.2012
      3 N          61.4239   90.0475   10.0537 N.ar    1  UNL1       -0.2136
      4 C          60.7549   88.9630    9.2622 C.ar    1  UNL1        0.0999
      5 C          59.7987   89.0074    8.1073 C.ar    1  UNL1        0.0207
      6 C          59.2867   87.7312    7.5082 C.ar    1  UNL1        0.0016
      7 C          59.7307   86.4106    8.0638 C.ar    1  UNL1        0.0016
      8 C          60.6869   86.3662    9.2187 C.ar    1  UNL1        0.0188
      9 C          61.1989   87.6424    9.8179 C.ar    1  UNL1        0.0799
     10 N          63.1291   90.1083   12.1113 N.pl3   1  UNL1       -0.2781
     11 C          63.2011   89.7955   13.5765 C.3     1  UNL1        0.0950
     12 C          64.1701   90.7510   14.2074 C.3     1  UNL1        0.0392
     13 C          64.6970   91.6544   13.1321 C.3     1  UNL1        0.0792
     14 C          64.0536   91.2571   11.8366 C.3     1  UNL1        0.1095
     15 N          65.6925   92.7607   13.3193 N.3     1  UNL1       -0.2699
     16 C          66.0373   93.6617   12.1706 C.3     1  UNL1        0.0897
     17 C          66.3431   92.9660   14.6551 C.3     1  UNL1        0.0897
     18 C          62.8266   86.8745   11.7942 C.3     1  UNL1        0.1407
     19 C          62.4100   85.4367   11.6995 C.3     1  UNL1        0.1666
     20 O          63.1796   84.3825   12.4386 O.3     1  UNL1       -0.3517
     21 C          63.9504   83.3518   10.1818 C.3     1  UNL1        0.0346
     22 C          64.0084   83.3886   11.6802 C.3     1  UNL1        0.1423
@<TRIPOS>BOND
     1    21    22    1
     2    22    20    1
     3    20    19    1
     4    19    18    1
     5    18     1    1
     6     1     2   ar
     7     2    10    1
     8    10    11    1
     9    11    12    1
    10    12    13    1
    11    13    15    1
    12    15    16    1
    13    15    17    1
    14    13    14    1
    15     2     3   ar
    16     3     4   ar
    17     4     5   ar
    18     5     6   ar
    19     6     7   ar
    20     7     8   ar
    21     8     9   ar
    22     9     1   ar
    23    14    10    1
    24     9     4   ar
@<TRIPOS>MOLECULE
*****
 22 24 0 0 0
SMALL
GASTEIGER

@<TRIPOS>ATOM
      1 N          63.8431   90.3982   13.2577 N.ar    1  UNL1       -0.2970
      2 C          63.3812   90.7163   11.8665 C.ar    1  UNL1        0.2012
      3 N          64.1703   91.8930   11.3738 N.ar    1  UNL1       -0.2136
      4 C          65.1198   92.3022   12.4605 C.ar    1  UNL1        0.0999
      5 C          66.1425   93.3966   12.5403 C.ar    1  UNL1        0.0207
      6 C          66.9629   93.5672   13.7843 C.ar    1  UNL1        0.0016
      7 C          66.7607   92.6433   14.9487 C.ar    1  UNL1        0.0016
      8 C          65.7381   91.5489   14.8689 C.ar    1  UNL1        0.0188
      9 C          64.9176   91.3783   13.6249 C.ar    1  UNL1        0.0799
     10 N          62.3171   89.9860   11.1022 N.pl3   1  UNL1       -0.2781
     11 C          60.8935   90.4270   10.9323 C.3     1  UNL1        0.0950
     12 C          60.1863   89.3999   10.0987 C.3     1  UNL1        0.0392
     13 C          61.1728   88.3241    9.7533 C.3     1  UNL1        0.0792
     14 C          62.4897   88.6863   10.3735 C.3     1  UNL1        0.1095
     15 N          60.8918   87.1008    8.9319 N.3     1  UNL1       -0.2699
     16 C          59.5641   86.9427    8.2519 C.3     1  UNL1        0.0897
     17 C          61.9384   86.0357    8.7906 C.3     1  UNL1        0.0897
     18 C          63.3220   89.2939   14.1289 C.3     1  UNL1        0.1407
     19 C          64.2467   88.2116   14.6015 C.3     1  UNL1        0.1666
     20 O          63.9971   86.7863   14.2064 O.3     1  UNL1       -0.3517
     21 C          64.9196   84.3578   14.2422 C.3     1  UNL1        0.0346
     22 C          64.7000   85.6742   14.9269 C.3     1  UNL1        0.1423
@<TRIPOS>BOND
     1    21    22    1
     2    22    20    1
     3    20    19    1
     4    19    18    1
     5    18     1    1
     6     1     2   ar
     7     2    10    1
     8    10    11    1
     9    11    12    1
    10    12    13    1
    11    13    15    1
    12    15    16    1
    13    15    17    1
    14    13    14    1
    15     2     3   ar
    16     3     4   ar
    17     4     5   ar
    18     5     6   ar
    19     6     7   ar
    20     7     8   ar
    21     8     9   ar
    22     9     1   ar
    23    14    10    1
    24     9     4   ar
@<TRIPOS>MOLECULE
*****
 22 24 0 0 0
SMALL
GASTEIGER

@<TRIPOS>ATOM
      1 N          62.9671   87.2548   12.2678 N.ar    1  UNL1       -0.2970
      2 C          63.4031   86.4103   13.4283 C.ar    1  UNL1        0.2012
      3 N          64.1165   87.2976   14.4049 N.ar    1  UNL1       -0.2136
      4 C          64.1214   88.6904   13.8480 C.ar    1  UNL1        0.0999
      5 C          64.6809   89.9793   14.3729 C.ar    1  UNL1        0.0207
      6 C          64.5300   91.2417   13.5771 C.ar    1  UNL1        0.0016
      7 C          63.8196   91.2152   12.2562 C.ar    1  UNL1        0.0016
      8 C          63.2601   89.9263   11.7313 C.ar    1  UNL1        0.0188
      9 C          63.4110   88.6639   12.5271 C.ar    1  UNL1        0.0799
     10 N          63.1671   84.9373   13.5847 N.pl3   1  UNL1       -0.2781
     11 C          62.8667   84.2240   14.8696 C.3     1  UNL1        0.0950
     12 C          62.7041   82.7648   14.5628 C.3     1  UNL1        0.0392
     13 C          62.9040   82.5762   13.0882 C.3     1  UNL1        0.0792
     14 C          63.1902   83.9188   12.4837 C.3     1  UNL1        0.1095
     15 N          62.8307   81.2736   12.3479 N.3     1  UNL1       -0.2699
     16 C          63.1969   81.2152   10.8945 C.3     1  UNL1        0.0897
     17 C          62.3911   80.0294   13.0612 C.3     1  UNL1        0.0897
     18 C          62.2185   86.7744   11.0599 C.3     1  UNL1        0.1407
     19 C          60.7708   87.1260   10.8858 C.3     1  UNL1        0.1666
     20 O          60.3151   87.8351    9.6450 O.3     1  UNL1       -0.3517
     21 C          60.1890   86.0610    7.7512 C.3     1  UNL1        0.0346
     22 C          59.5226   87.0967    8.6074 C.3     1  UNL1        0.1423
@<TRIPOS>BOND
     1    21    22    1
     2    22    20    1
     3    20    19    1
     4    19    18    1
     5    18     1    1
     6     1     2   ar
     7     2    10    1
     8    10    11    1
     9    11    12    1
    10    12    13    1
    11    13    15    1
    12    15    16    1
    13    15    17    1
    14    13    14    1
    15     2     3   ar
    16     3     4   ar
    17     4     5   ar
    18     5     6   ar
    19     6     7   ar
    20     7     8   ar
    21     8     9   ar
    22     9     1   ar
    23    14    10    1
    24     9     4   ar
@<TRIPOS>MOLECULE
*****
 22 24 0 0 0
SMALL
GASTEIGER

@<TRIPOS>ATOM
      1 N          63.3402   87.9621   12.7068 N.ar    1  UNL1       -0.2970
      2 C          64.0090   88.1954   14.0290 C.ar    1  UNL1        0.2012
      3 N          64.2695   86.8592   14.6588 N.ar    1  UNL1       -0.2136
      4 C          63.7617   85.8001   13.7259 C.ar    1  UNL1        0.0999
      5 C          63.7482   84.3031   13.8190 C.ar    1  UNL1        0.0207
      6 C          63.1603   83.4877   12.7057 C.ar    1  UNL1        0.0016
      7 C          62.5859   84.1693   11.4993 C.ar    1  UNL1        0.0016
      8 C          62.5995   85.6663   11.4061 C.ar    1  UNL1        0.0188
      9 C          63.1874   86.4817   12.5194 C.ar    1  UNL1        0.0799
     10 N          64.3562   89.5305   14.6180 N.pl3   1  UNL1       -0.2781
     11 C          63.6235   90.2213   15.7297 C.3     1  UNL1        0.0950
     12 C          64.3116   91.5270   15.9975 C.3     1  UNL1        0.0392
     13 C          65.4697   91.6432   15.0513 C.3     1  UNL1        0.0792
     14 C          65.4973   90.4093   14.1987 C.3     1  UNL1        0.1095
     15 N          66.4313   92.7916   14.9716 N.3     1  UNL1       -0.2699
     16 C          66.4519   93.6696   13.7556 C.3     1  UNL1        0.0897
     17 C          67.3724   93.0620   16.1079 C.3     1  UNL1        0.0897
     18 C          62.9013   89.0229   11.7414 C.3     1  UNL1        0.1407
     19 C          61.4881   89.5249   11.7701 C.3     1  UNL1        0.1666
     20 O          60.3497   88.5741   11.5465 O.3     1  UNL1       -0.3517
     21 C          60.2137   88.9545    8.9800 C.3     1  UNL1        0.0346
     22 C          60.0686   88.0514   10.1689 C.3     1  UNL1        0.1423
@<TRIPOS>BOND
     1    21    22    1
     2    22    20    1
     3    20    19    1
     4    19    18    1
     5    18     1    1
     6     1     2   ar
     7     2    10    1
     8    10    11    1
     9    11    12    1
    10    12    13    1
    11    13    15    1
    12    15    16    1
    13    15    17    1
    14    13    14    1
    15     2     3   ar
    16     3     4   ar
    17     4     5   ar
    18     5     6   ar
    19     6     7   ar
    20     7     8   ar
    21     8     9   ar
    22     9     1   ar
    23    14    10    1
    24     9     4   ar
@<TRIPOS>MOLECULE
*****
 22 24 0 0 0
SMALL
GASTEIGER

@<TRIPOS>ATOM
      1 N          62.9714   86.1116   12.2439 N.ar    1  UNL1       -0.2970
      2 C          63.6229   86.8699   13.3622 C.ar    1  UNL1        0.2012
      3 N          64.0713   85.8787   14.3949 N.ar    1  UNL1       -0.2136
      4 C          63.6970   84.5077   13.9148 C.ar    1  UNL1        0.0999
      5 C          63.8873   83.1469   14.5164 C.ar    1  UNL1        0.0207
      6 C          63.3979   81.9301   13.7886 C.ar    1  UNL1        0.0016
      7 C          62.7181   82.0741   12.4592 C.ar    1  UNL1        0.0016
      8 C          62.5278   83.4349   11.8576 C.ar    1  UNL1        0.0188
      9 C          63.0172   84.6517   12.5854 C.ar    1  UNL1        0.0799
     10 N          63.7956   88.3582   13.4351 N.pl3   1  UNL1       -0.2781
     11 C          63.3244   89.3515   12.4146 C.3     1  UNL1        0.0950
     12 C          63.7074   90.7216   12.8900 C.3     1  UNL1        0.0392
     13 C          64.4152   90.5751   14.2044 C.3     1  UNL1        0.0792
     14 C          64.4697   89.1145   14.5412 C.3     1  UNL1        0.1095
     15 N          64.9710   91.6930   15.0359 N.3     1  UNL1       -0.2699
     16 C          64.4228   91.9514   16.4080 C.3     1  UNL1        0.0897
     17 C          66.0751   92.5525   14.4953 C.3     1  UNL1        0.0897
     18 C          62.3783   86.7084   11.0021 C.3     1  UNL1        0.1407
     19 C          60.8919   86.8707   10.8841 C.3     1  UNL1        0.1666
     20 O          60.2115   88.0412   11.5298 O.3     1  UNL1       -0.3517
     21 C          59.4482   90.5235   11.4524 C.3     1  UNL1        0.0346
     22 C          60.1182   89.3495   10.8020 C.3     1  UNL1        0.1423
@<TRIPOS>BOND
     1    21    22    1
     2    22    20    1
     3    20    19    1
     4    19    18    1
     5    18     1    1
     6     1     2   ar
     7     2    10    1
     8    10    11    1
     9    11    12    1
    10    12    13    1
    11    13    15    1
    12    15    16    1
    13    15    17    1
    14    13    14    1
    15     2     3   ar
    16     3     4   ar
    17     4     5   ar
    18     5     6   ar
    19     6     7   ar
    20     7     8   ar
    21     8     9   ar
    22     9     1   ar
    23    14    10    1
    24     9     4   ar
@<TRIPOS>MOLECULE
*****
 22 24 0 0 0
SMALL
GASTEIGER

@<TRIPOS>ATOM
      1 N          62.5537   86.7583   11.4639 N.ar    1  UNL1       -0.2970
      2 C          63.1921   86.2711   12.7309 C.ar    1  UNL1        0.2012
      3 N          63.7313   87.4622   13.4660 N.ar    1  UNL1       -0.2136
      4 C          63.4262   88.6856   12.6534 C.ar    1  UNL1        0.0999
      5 C          63.7171   90.1395   12.8803 C.ar    1  UNL1        0.0207
      6 C          63.2802   91.1583   11.8699 C.ar    1  UNL1        0.0016
      7 C          62.5524   90.7233   10.6325 C.ar    1  UNL1        0.0016
      8 C          62.2615   89.2694   10.4056 C.ar    1  UNL1        0.0188
      9 C          62.6984   88.2505   11.4160 C.ar    1  UNL1        0.0799
     10 N          63.2764   84.8434   13.1833 N.pl3   1  UNL1       -0.2781
     11 C          64.3497   84.2552   14.0504 C.3     1  UNL1        0.0950
     12 C          64.0388   82.8015   14.2510 C.3     1  UNL1        0.0392
     13 C          62.7734   82.4913   13.5078 C.3     1  UNL1        0.0792
     14 C          62.3022   83.7532   12.8479 C.3     1  UNL1        0.1095
     15 N          62.0977   81.1540   13.4369 N.3     1  UNL1       -0.2699
     16 C          60.8131   80.9225   14.1761 C.3     1  UNL1        0.0897
     17 C          62.7067   80.0481   12.6269 C.3     1  UNL1        0.0897
     18 C          61.8876   85.9034   10.4269 C.3     1  UNL1        0.1407
     19 C          62.6594   85.4426    9.2262 C.3     1  UNL1        0.1666
     20 O          62.0455   85.5319    7.8604 O.3     1  UNL1       -0.3517
     21 C          61.7015   84.1828    5.6668 C.3     1  UNL1        0.0346
     22 C          62.6109   84.7243    6.7298 C.3     1  UNL1        0.1423
@<TRIPOS>BOND
     1    21    22    1
     2    22    20    1
     3    20    19    1
     4    19    18    1
     5    18     1    1
     6     1     2   ar
     7     2    10    1
     8    10    11    1
     9    11    12    1
    10    12    13    1
    11    13    15    1
    12    15    16    1
    13    15    17    1
    14    13    14    1
    15     2     3   ar
    16     3     4   ar
    17     4     5   ar
    18     5     6   ar
    19     6     7   ar
    20     7     8   ar
    21     8     9   ar
    22     9     1   ar
    23    14    10    1
    24     9     4   ar
@<TRIPOS>MOLECULE
*****
 22 24 0 0 0
SMALL
GASTEIGER

@<TRIPOS>ATOM
      1 N          63.7920   90.2147   12.6571 N.ar    1  UNL1       -0.2970
      2 C          63.2965   90.2347   11.2415 C.ar    1  UNL1        0.2012
      3 N          63.8999   91.4246   10.5560 N.ar    1  UNL1       -0.2136
      4 C          64.7684   92.1400   11.5479 C.ar    1  UNL1        0.0999
      5 C          65.6112   93.3758   11.4365 C.ar    1  UNL1        0.0207
      6 C          66.3874   93.8638   12.6236 C.ar    1  UNL1        0.0016
      7 C          66.3207   93.1160   13.9222 C.ar    1  UNL1        0.0016
      8 C          65.4779   91.8802   14.0337 C.ar    1  UNL1        0.0188
      9 C          64.7017   91.3923   12.8465 C.ar    1  UNL1        0.0799
     10 N          62.3617   89.2394   10.6205 N.pl3   1  UNL1       -0.2781
     11 C          62.1883   87.8104   11.0420 C.3     1  UNL1        0.0950
     12 C          61.1556   87.1863   10.1509 C.3     1  UNL1        0.0392
     13 C          60.6908   88.2296    9.1786 C.3     1  UNL1        0.0792
     14 C          61.4362   89.4985    9.4688 C.3     1  UNL1        0.1095
     15 N          59.6613   88.0378    8.1047 N.3     1  UNL1       -0.2699
     16 C          59.3518   89.1560    7.1540 C.3     1  UNL1        0.0897
     17 C          58.9413   86.7277    7.9814 C.3     1  UNL1        0.0897
     18 C          63.4398   89.1960   13.7003 C.3     1  UNL1        0.1407
     19 C          63.6183   89.5187   15.1542 C.3     1  UNL1        0.1666
     20 O          62.6613   88.9656   16.1683 O.3     1  UNL1       -0.3517
     21 C          62.7302   86.6073   17.2564 C.3     1  UNL1        0.0346
     22 C          63.1574   88.0452   17.2438 C.3     1  UNL1        0.1423
@<TRIPOS>BOND
     1    21    22    1
     2    22    20    1
     3    20    19    1
     4    19    18    1
     5    18     1    1
     6     1     2   ar
     7     2    10    1
     8    10    11    1
     9    11    12    1
    10    12    13    1
    11    13    15    1
    12    15    16    1
    13    15    17    1
    14    13    14    1
    15     2     3   ar
    16     3     4   ar
    17     4     5   ar
    18     5     6   ar
    19     6     7   ar
    20     7     8   ar
    21     8     9   ar
    22     9     1   ar
    23    14    10    1
    24     9     4   ar
@<TRIPOS>MOLECULE
*****
 22 24 0 0 0
SMALL
GASTEIGER

@<TRIPOS>ATOM
      1 N          63.8656   90.4780   12.3827 N.ar    1  UNL1       -0.2970
      2 C          63.0569   90.5097   11.1198 C.ar    1  UNL1        0.2012
      3 N          63.5103   91.6871   10.3086 N.ar    1  UNL1       -0.2136
      4 C          64.5991   92.3832   11.0701 C.ar    1  UNL1        0.0999
      5 C          65.4190   93.6009   10.7619 C.ar    1  UNL1        0.0207
      6 C          66.4585   94.0712   11.7356 C.ar    1  UNL1        0.0016
      7 C          66.6781   93.3240   13.0176 C.ar    1  UNL1        0.0016
      8 C          65.8582   92.1063   13.3258 C.ar    1  UNL1        0.0188
      9 C          64.8188   91.6359   12.3521 C.ar    1  UNL1        0.0799
     10 N          61.9834   89.5351   10.7356 N.pl3   1  UNL1       -0.2781
     11 C          60.7050   89.2921   11.4816 C.3     1  UNL1        0.0950
     12 C          59.9313   88.2392   10.7449 C.3     1  UNL1        0.0392
     13 C          60.7315   87.8313    9.5436 C.3     1  UNL1        0.0792
     14 C          61.9998   88.6322    9.5378 C.3     1  UNL1        0.1095
     15 N          60.3335   86.8031    8.5266 N.3     1  UNL1       -0.2699
     16 C          61.3323   85.7879    8.0558 C.3     1  UNL1        0.0897
     17 C          58.9365   86.7901    7.9804 C.3     1  UNL1        0.0897
     18 C          63.7428   89.4662   13.4832 C.3     1  UNL1        0.1407
     19 C          63.0856   89.8422   14.7780 C.3     1  UNL1        0.1666
     20 O          63.9233   90.2480   15.9542 O.3     1  UNL1       -0.3517
     21 C          65.2544   92.3483   16.7071 C.3     1  UNL1        0.0346
     22 C          63.9471   91.6801   16.3997 C.3     1  UNL1        0.1423
@<TRIPOS>BOND
     1    21    22    1
     2    22    20    1
     3    20    19    1
     4    19    18    1
     5    18     1    1
     6     1     2   ar
     7     2    10    1
     8    10    11    1
     9    11    12    1
    10    12    13    1
    11    13    15    1
    12    15    16    1
    13    15    17    1
    14    13    14    1
    15     2     3   ar
    16     3     4   ar
    17     4     5   ar
    18     5     6   ar
    19     6     7   ar
    20     7     8   ar
    21     8     9   ar
    22     9     1   ar
    23    14    10    1
    24     9     4   ar
