@<TRIPOS>MOLECULE
*****
 47 51 0 0 0
SMALL
GASTEIGER

@<TRIPOS>ATOM
      1 C          63.9067   88.9332   13.4160 C.2     1  UNL1        0.2492
      2 O          64.8118   89.8202   14.2185 O.2     1  UNL1       -0.2699
      3 N          63.0524   89.5183   12.3308 N.am    1  UNL1       -0.2721
      4 C          62.9992   82.6323   12.9338 C.ar    1  UNL1        0.2924
      5 N          63.5837   83.0262   14.2579 N.ar    1  UNL1       -0.1946
      6 C          63.7544   84.5165   14.2643 C.ar    1  UNL1        0.1202
      7 C          64.2841   85.4616   15.3017 C.ar    1  UNL1        0.0225
      8 C          64.3348   86.9338   15.0189 C.ar    1  UNL1        0.0063
      9 C          63.8559   87.4609   13.6987 C.ar    1  UNL1        0.0567
     10 C          63.3262   86.5158   12.6614 C.ar    1  UNL1        0.0437
     11 C          63.2755   85.0436   12.9441 C.ar    1  UNL1        0.1662
     12 O          62.8088   83.8791   12.1219 O.2     1  UNL1       -0.4237
     13 N          62.6641   81.2366   12.4981 N.pl3   1  UNL1       -0.2619
     14 C          63.0339   80.7717   11.1208 C.3     1  UNL1        0.1166
     15 C          60.7466   80.7734   14.1889 C.3     1  UNL1        0.0233
     16 C          61.9592   80.3059   13.4397 C.3     1  UNL1        0.0952
     17 C          63.1032   90.9906   12.0480 C.3     1  UNL1        0.1111
     18 C          64.0545   91.5242   11.0184 C.3     1  UNL1        0.0940
     19 N          64.9996   92.6335   11.3740 N.3     1  UNL1       -0.2670
     20 C          65.3946   93.6433   10.3375 C.3     1  UNL1        0.1047
     21 C          66.3396   94.7526   10.6931 C.3     1  UNL1        0.1595
     22 O          66.8896   94.8521   12.0850 O.3     1  UNL1       -0.3508
     23 C          66.4946   93.8423   13.1215 C.3     1  UNL1        0.1595
     24 C          65.5495   92.7330   12.7660 C.3     1  UNL1        0.1047
     25 C          62.1473   88.6313   11.5283 C.3     1  UNL1        0.1246
     26 C          60.9153   89.1993   10.8881 C.3     1  UNL1        0.1484
     27 O          60.1403   90.2803   11.5813 O.3     1  UNL1       -0.3810
     28 H          60.5677   90.4941   12.4254 H       1  UNL1        0.2105
     29 C          60.4585   88.6861    9.5547 C.3     1  UNL1        0.1075
     30 N          60.3620   89.6199    8.3847 N.am    1  UNL1       -0.2695
     31 C          59.3189   89.3958    7.3304 C.2     1  UNL1        0.4020
     32 O          58.3722   88.2381    7.4460 O.2     1  UNL1       -0.2264
     33 H          60.9833   90.3798    8.3088 H       1  UNL1        0.1528
     34 O          59.2224   90.3296    6.1603 O.3     1  UNL1       -0.4291
     35 C          60.4009   90.5178    5.2517 C.3     1  UNL1        0.2447
     36 C          60.3871   91.6078    4.2215 C.ar    1  UNL1        0.0714
     37 C          59.2082   92.4602    3.8554 C.ar    1  UNL1        0.1053
     38 N          59.6422   93.4161    2.7841 N.ar    1  UNL1       -0.2350
     39 C          61.0893   93.1547    2.4879 C.ar    1  UNL1        0.1343
     40 S          61.5496   92.0370    3.3763 S.2     1  UNL1       -0.0652
     41 C          60.0982   87.2393    9.3913 C.3     1  UNL1        0.0485
     42 C          60.9968   86.3260    8.6112 C.ar    1  UNL1       -0.0204
     43 C          60.5136   85.7127    7.3305 C.ar    1  UNL1       -0.0042
     44 C          61.4122   84.7994    6.5504 C.ar    1  UNL1       -0.0003
     45 C          62.7940   84.4995    7.0511 C.ar    1  UNL1       -0.0000
     46 C          63.2772   85.1129    8.3318 C.ar    1  UNL1       -0.0003
     47 C          62.3785   86.0261    9.1119 C.ar    1  UNL1       -0.0042
@<TRIPOS>BOND
     1    15    16    1
     2    16    13    1
     3    13    14    1
     4    13     4    1
     5     4     5   ar
     6     5     6   ar
     7     6     7   ar
     8     7     8   ar
     9     8     9   ar
    10     9     1    1
    11     1     2    2
    12     1     3   am
    13     3    17    1
    14    17    18    1
    15    18    19    1
    16    19    20    1
    17    20    21    1
    18    21    22    1
    19    22    23    1
    20    23    24    1
    21     3    25    1
    22    25    26    1
    23    26    27    1
    24    26    29    1
    25    29    41    1
    26    41    42    1
    27    42    43   ar
    28    43    44   ar
    29    44    45   ar
    30    45    46   ar
    31    46    47   ar
    32    29    30    1
    33    30    31   am
    34    31    32    2
    35    31    34    1
    36    34    35    1
    37    35    36    1
    38    36    37   ar
    39    37    38   ar
    40    38    39   ar
    41    39    40   ar
    42     9    10   ar
    43    10    11   ar
    44    11    12   ar
    45    12     4   ar
    46    11     6   ar
    47    24    19    1
    48    47    42   ar
    49    40    36   ar
    50    27    28    1
    51    30    33    1
@<TRIPOS>MOLECULE
*****
 47 51 0 0 0
SMALL
GASTEIGER

@<TRIPOS>ATOM
      1 C          64.3498   91.0851   13.3077 C.2     1  UNL1        0.2492
      2 O          65.0267   92.2511   13.9651 O.2     1  UNL1       -0.2699
      3 N          63.9746   91.1559   11.8571 N.am    1  UNL1       -0.2721
      4 C          63.4731   85.0203   15.0986 C.ar    1  UNL1        0.2924
      5 N          63.2106   85.9894   16.2131 N.ar    1  UNL1       -0.1946
      6 C          63.4444   87.3747   15.6875 C.ar    1  UNL1        0.1202
      7 C          63.3393   88.7243   16.3336 C.ar    1  UNL1        0.0225
      8 C          63.6411   89.9611   15.5403 C.ar    1  UNL1        0.0063
      9 C          64.0480   89.8482   14.1010 C.ar    1  UNL1        0.0567
     10 C          64.1531   88.4986   13.4549 C.ar    1  UNL1        0.0437
     11 C          63.8513   87.2619   14.2482 C.ar    1  UNL1        0.1662
     12 O          63.8690   85.8068   13.8842 O.2     1  UNL1       -0.4237
     13 N          63.3595   83.5271   15.1836 N.pl3   1  UNL1       -0.2619
     14 C          64.5792   82.6962   15.4517 C.3     1  UNL1        0.1166
     15 C          61.9041   81.6551   14.1217 C.3     1  UNL1        0.0233
     16 C          62.0263   82.8647   15.0004 C.3     1  UNL1        0.0952
     17 C          64.2764   92.3927   11.0638 C.3     1  UNL1        0.1111
     18 C          65.6580   92.6203   10.5260 C.3     1  UNL1        0.0940
     19 N          66.1601   94.0179   10.3156 N.3     1  UNL1       -0.2670
     20 C          65.8221   95.0933   11.3053 C.3     1  UNL1        0.1047
     21 C          66.3242   96.4910   11.0949 C.3     1  UNL1        0.1595
     22 O          67.1644   96.8134    9.8948 O.3     1  UNL1       -0.3508
     23 C          67.5024   95.7382    8.9052 C.3     1  UNL1        0.1595
     24 C          67.0003   94.3404    9.1156 C.3     1  UNL1        0.1047
     25 C          63.2977   89.9899   11.1997 C.3     1  UNL1        0.1246
     26 C          61.8078   89.9883   11.0255 C.3     1  UNL1        0.1484
     27 O          60.9696   91.0160   11.7264 O.3     1  UNL1       -0.3810
     28 H          61.5427   91.6004   12.2468 H       1  UNL1        0.2105
     29 C          61.1561   88.9589   10.1504 C.3     1  UNL1        0.1075
     30 N          60.8021   89.2958    8.7322 N.am    1  UNL1       -0.2695
     31 C          59.6963   88.5562    8.0392 C.2     1  UNL1        0.4020
     32 O          58.9446   87.4796    8.7644 O.2     1  UNL1       -0.2264
     33 H          61.2955   90.0024    8.2562 H       1  UNL1        0.1528
     34 O          59.3423   88.8931    6.6210 O.3     1  UNL1       -0.4291
     35 C          58.6250   90.1734    6.3110 C.3     1  UNL1        0.2447
     36 C          59.1400   91.0792    5.2319 C.ar    1  UNL1        0.0714
     37 C          58.3242   92.0535    4.4348 C.ar    1  UNL1        0.1053
     38 N          59.2411   92.7462    3.4707 N.ar    1  UNL1       -0.2350
     39 C          60.6236   92.2000    3.6719 C.ar    1  UNL1        0.1343
     40 S          60.5611   91.1697    4.7604 S.2     1  UNL1       -0.0652
     41 C          60.8585   87.5927   10.6934 C.3     1  UNL1        0.0485
     42 C          61.7397   86.4338   10.3323 C.ar    1  UNL1       -0.0204
     43 C          62.0554   85.3841   11.3561 C.ar    1  UNL1       -0.0042
     44 C          62.9366   84.2251   10.9950 C.ar    1  UNL1       -0.0003
     45 C          63.5019   84.1158    9.6099 C.ar    1  UNL1       -0.0000
     46 C          63.1861   85.1655    8.5860 C.ar    1  UNL1       -0.0003
     47 C          62.3050   86.3245    8.9472 C.ar    1  UNL1       -0.0042
@<TRIPOS>BOND
     1    15    16    1
     2    16    13    1
     3    13    14    1
     4    13     4    1
     5     4     5   ar
     6     5     6   ar
     7     6     7   ar
     8     7     8   ar
     9     8     9   ar
    10     9     1    1
    11     1     2    2
    12     1     3   am
    13     3    17    1
    14    17    18    1
    15    18    19    1
    16    19    20    1
    17    20    21    1
    18    21    22    1
    19    22    23    1
    20    23    24    1
    21     3    25    1
    22    25    26    1
    23    26    27    1
    24    26    29    1
    25    29    41    1
    26    41    42    1
    27    42    43   ar
    28    43    44   ar
    29    44    45   ar
    30    45    46   ar
    31    46    47   ar
    32    29    30    1
    33    30    31   am
    34    31    32    2
    35    31    34    1
    36    34    35    1
    37    35    36    1
    38    36    37   ar
    39    37    38   ar
    40    38    39   ar
    41    39    40   ar
    42     9    10   ar
    43    10    11   ar
    44    11    12   ar
    45    12     4   ar
    46    11     6   ar
    47    24    19    1
    48    47    42   ar
    49    40    36   ar
    50    27    28    1
    51    30    33    1
@<TRIPOS>MOLECULE
*****
 47 51 0 0 0
SMALL
GASTEIGER

@<TRIPOS>ATOM
      1 C          64.3354   91.0253   15.4072 C.2     1  UNL1        0.2492
      2 O          64.1740   91.7226   16.7254 O.2     1  UNL1       -0.2699
      3 N          63.5676   89.7680   15.1248 N.am    1  UNL1       -0.2721
      4 C          66.7216   94.0125   10.2945 C.ar    1  UNL1        0.2924
      5 N          67.7886   93.3742   11.1337 N.ar    1  UNL1       -0.1946
      6 C          67.1231   92.7052   12.2997 C.ar    1  UNL1        0.1202
      7 C          67.6722   91.9205   13.4541 C.ar    1  UNL1        0.0225
      8 C          66.7429   91.3605   14.4899 C.ar    1  UNL1        0.0063
      9 C          65.2646   91.5853   14.3713 C.ar    1  UNL1        0.0567
     10 C          64.7155   92.3701   13.2170 C.ar    1  UNL1        0.0437
     11 C          65.6447   92.9300   12.1812 C.ar    1  UNL1        0.1662
     12 O          65.3967   93.7379   10.9419 O.2     1  UNL1       -0.4237
     13 N          66.9411   94.7889    9.0300 N.pl3   1  UNL1       -0.2619
     14 C          67.7741   94.2061    7.9271 C.3     1  UNL1        0.1166
     15 C          65.7489   96.8560   10.0575 C.3     1  UNL1        0.0233
     16 C          66.3275   96.1480    8.8684 C.3     1  UNL1        0.0952
     17 C          62.6384   89.2080   16.1607 C.3     1  UNL1        0.1111
     18 C          63.0770   88.0586   17.0189 C.3     1  UNL1        0.0940
     19 N          63.2761   86.7019   16.4109 N.3     1  UNL1       -0.2670
     20 C          64.4814   86.4308   15.5601 C.3     1  UNL1        0.1047
     21 C          64.6804   85.0741   14.9521 C.3     1  UNL1        0.1595
     22 O          63.6742   83.9884   15.1949 O.3     1  UNL1       -0.3508
     23 C          62.4689   84.2595   16.0456 C.3     1  UNL1        0.1595
     24 C          62.2699   85.6163   16.6537 C.3     1  UNL1        0.1047
     25 C          63.7290   89.0707   13.8066 C.3     1  UNL1        0.1246
     26 C          62.6518   89.1721   12.7677 C.3     1  UNL1        0.1484
     27 O          61.4993   90.1103   12.9713 O.3     1  UNL1       -0.3810
     28 H          61.6036   90.5715   13.8182 H       1  UNL1        0.2105
     29 C          62.7270   88.3351   11.5251 C.3     1  UNL1        0.1075
     30 N          63.4190   87.0046   11.5578 N.am    1  UNL1       -0.2695
     31 C          62.6451   85.7649   11.8955 C.2     1  UNL1        0.4020
     32 O          61.1793   85.8555   12.2005 O.2     1  UNL1       -0.2264
     33 H          64.3811   86.9451   11.3576 H       1  UNL1        0.1528
     34 O          63.3371   84.4344   11.9282 O.3     1  UNL1       -0.4291
     35 C          62.5469   83.1732   11.7412 C.3     1  UNL1        0.2447
     36 C          62.7242   82.0288   12.6945 C.ar    1  UNL1        0.0714
     37 C          64.0326   81.4966   13.1996 C.ar    1  UNL1        0.1053
     38 N          63.7413   80.3545   14.1274 N.ar    1  UNL1       -0.2350
     39 C          62.2529   80.1808   14.1958 C.ar    1  UNL1        0.1343
     40 S          61.6243   81.2156   13.3102 S.2     1  UNL1       -0.0652
     41 C          62.1103   88.8286   10.2500 C.3     1  UNL1        0.0485
     42 C          61.3896   87.8726    9.3463 C.ar    1  UNL1       -0.0204
     43 C          62.0984   86.6610    8.8178 C.ar    1  UNL1       -0.0042
     44 C          61.3776   85.7050    7.9141 C.ar    1  UNL1       -0.0003
     45 C          59.9480   85.9607    7.5390 C.ar    1  UNL1       -0.0000
     46 C          59.2392   87.1723    8.0676 C.ar    1  UNL1       -0.0003
     47 C          59.9599   88.1283    8.9712 C.ar    1  UNL1       -0.0042
@<TRIPOS>BOND
     1    15    16    1
     2    16    13    1
     3    13    14    1
     4    13     4    1
     5     4     5   ar
     6     5     6   ar
     7     6     7   ar
     8     7     8   ar
     9     8     9   ar
    10     9     1    1
    11     1     2    2
    12     1     3   am
    13     3    17    1
    14    17    18    1
    15    18    19    1
    16    19    20    1
    17    20    21    1
    18    21    22    1
    19    22    23    1
    20    23    24    1
    21     3    25    1
    22    25    26    1
    23    26    27    1
    24    26    29    1
    25    29    41    1
    26    41    42    1
    27    42    43   ar
    28    43    44   ar
    29    44    45   ar
    30    45    46   ar
    31    46    47   ar
    32    29    30    1
    33    30    31   am
    34    31    32    2
    35    31    34    1
    36    34    35    1
    37    35    36    1
    38    36    37   ar
    39    37    38   ar
    40    38    39   ar
    41    39    40   ar
    42     9    10   ar
    43    10    11   ar
    44    11    12   ar
    45    12     4   ar
    46    11     6   ar
    47    24    19    1
    48    47    42   ar
    49    40    36   ar
    50    27    28    1
    51    30    33    1
@<TRIPOS>MOLECULE
*****
 47 51 0 0 0
SMALL
GASTEIGER

@<TRIPOS>ATOM
      1 C          64.2294   89.8788   14.8746 C.2     1  UNL1        0.2492
      2 O          64.5744   90.7760   16.0261 O.2     1  UNL1       -0.2699
      3 N          64.1967   90.4284   13.4793 N.am    1  UNL1       -0.2721
      4 C          63.4383   83.5825   14.1768 C.ar    1  UNL1        0.2924
      5 N          63.0709   84.0561   15.5518 N.ar    1  UNL1       -0.1946
      6 C          63.2927   85.5386   15.6061 C.ar    1  UNL1        0.1202
      7 C          63.1005   86.5427   16.7037 C.ar    1  UNL1        0.0225
      8 C          63.4127   87.9894   16.4599 C.ar    1  UNL1        0.0063
      9 C          63.9172   88.4320   15.1184 C.ar    1  UNL1        0.0567
     10 C          64.1094   87.4280   14.0208 C.ar    1  UNL1        0.0437
     11 C          63.7972   85.9813   14.2646 C.ar    1  UNL1        0.1662
     12 O          63.8872   84.7723   13.3813 O.2     1  UNL1       -0.4237
     13 N          63.3690   82.1675   13.6838 N.pl3   1  UNL1       -0.2619
     14 C          62.3809   81.2118   14.2839 C.3     1  UNL1        0.1166
     15 C          64.1354   82.2564   11.2030 C.3     1  UNL1        0.0233
     16 C          64.2879   81.7082   12.5908 C.3     1  UNL1        0.0952
     17 C          64.5090   91.8752   13.2355 C.3     1  UNL1        0.1111
     18 C          65.9356   92.3303   13.1491 C.3     1  UNL1        0.0940
     19 N          66.3987   93.1256   11.9647 N.3     1  UNL1       -0.2670
     20 C          67.0698   92.4358   10.8140 C.3     1  UNL1        0.1047
     21 C          67.5328   93.2311    9.6296 C.3     1  UNL1        0.1595
     22 O          67.3249   94.7163    9.5957 O.3     1  UNL1       -0.3508
     23 C          66.6538   95.4061   10.7462 C.3     1  UNL1        0.1595
     24 C          66.1907   94.6108   11.9308 C.3     1  UNL1        0.1047
     25 C          63.8518   89.5312   12.3277 C.3     1  UNL1        0.1246
     26 C          62.4162   89.3101   11.9530 C.3     1  UNL1        0.1484
     27 O          61.3217   89.8385   12.8321 O.3     1  UNL1       -0.3810
     28 H          61.7112   90.2939   13.5949 H       1  UNL1        0.2105
     29 C          62.0753   88.5607   10.6992 C.3     1  UNL1        0.1075
     30 N          61.4539   89.2819    9.5399 N.am    1  UNL1       -0.2695
     31 C          59.9735   89.5216    9.5119 C.2     1  UNL1        0.4020
     32 O          59.1143   89.0401   10.6433 O.2     1  UNL1       -0.2264
     33 H          62.0178   89.5980    8.7973 H       1  UNL1        0.1528
     34 O          59.3522   90.2428    8.3526 O.3     1  UNL1       -0.4291
     35 C          59.4898   89.6905    6.9649 C.3     1  UNL1        0.2447
     36 C          59.4478   90.6131    5.7829 C.ar    1  UNL1        0.0714
     37 C          60.6260   91.0519    4.9647 C.ar    1  UNL1        0.1053
     38 N          60.1268   91.9689    3.8878 N.ar    1  UNL1       -0.2350
     39 C          58.6400   92.0968    4.0403 C.ar    1  UNL1        0.1343
     40 S          58.2204   91.2589    5.2116 S.2     1  UNL1       -0.0652
     41 C          62.3556   87.0902   10.6046 C.3     1  UNL1        0.0485
     42 C          62.0497   86.3484    9.3372 C.ar    1  UNL1       -0.0204
     43 C          63.1417   85.6174    8.6139 C.ar    1  UNL1       -0.0042
     44 C          62.8358   84.8756    7.3466 C.ar    1  UNL1       -0.0003
     45 C          61.4380   84.8647    6.8026 C.ar    1  UNL1       -0.0000
     46 C          60.3461   85.5957    7.5259 C.ar    1  UNL1       -0.0003
     47 C          60.6519   86.3375    8.7932 C.ar    1  UNL1       -0.0042
@<TRIPOS>BOND
     1    15    16    1
     2    16    13    1
     3    13    14    1
     4    13     4    1
     5     4     5   ar
     6     5     6   ar
     7     6     7   ar
     8     7     8   ar
     9     8     9   ar
    10     9     1    1
    11     1     2    2
    12     1     3   am
    13     3    17    1
    14    17    18    1
    15    18    19    1
    16    19    20    1
    17    20    21    1
    18    21    22    1
    19    22    23    1
    20    23    24    1
    21     3    25    1
    22    25    26    1
    23    26    27    1
    24    26    29    1
    25    29    41    1
    26    41    42    1
    27    42    43   ar
    28    43    44   ar
    29    44    45   ar
    30    45    46   ar
    31    46    47   ar
    32    29    30    1
    33    30    31   am
    34    31    32    2
    35    31    34    1
    36    34    35    1
    37    35    36    1
    38    36    37   ar
    39    37    38   ar
    40    38    39   ar
    41    39    40   ar
    42     9    10   ar
    43    10    11   ar
    44    11    12   ar
    45    12     4   ar
    46    11     6   ar
    47    24    19    1
    48    47    42   ar
    49    40    36   ar
    50    27    28    1
    51    30    33    1
@<TRIPOS>MOLECULE
*****
 47 51 0 0 0
SMALL
GASTEIGER

@<TRIPOS>ATOM
      1 C          64.2985   90.7029   14.8082 C.2     1  UNL1        0.2492
      2 O          64.2250   91.1618   16.2344 O.2     1  UNL1       -0.2699
      3 N          63.4745   89.5353   14.3526 N.am    1  UNL1       -0.2721
      4 C          66.5186   94.2822   10.0106 C.ar    1  UNL1        0.2924
      5 N          67.6193   93.6411   10.8028 N.ar    1  UNL1       -0.1946
      6 C          66.9911   92.8293   11.8965 C.ar    1  UNL1        0.1202
      7 C          67.5826   91.9812   12.9832 C.ar    1  UNL1        0.0225
      8 C          66.6850   91.2724   13.9537 C.ar    1  UNL1        0.0063
      9 C          65.1960   91.4117   13.8376 C.ar    1  UNL1        0.0567
     10 C          64.6046   92.2598   12.7509 C.ar    1  UNL1        0.0437
     11 C          65.5021   92.9686   11.7804 C.ar    1  UNL1        0.1662
     12 O          65.2101   93.8665   10.6149 O.2     1  UNL1       -0.4237
     13 N          66.6953   95.1811    8.8229 N.pl3   1  UNL1       -0.2619
     14 C          67.6862   94.8258    7.7543 C.3     1  UNL1        0.1166
     15 C          65.3417   96.8552    7.3685 C.3     1  UNL1        0.0233
     16 C          65.8812   96.4352    8.7037 C.3     1  UNL1        0.0952
     17 C          62.5769   88.8265   15.3232 C.3     1  UNL1        0.1111
     18 C          63.1524   87.8344   16.2900 C.3     1  UNL1        0.0940
     19 N          63.4852   86.4459   15.8306 N.3     1  UNL1       -0.2670
     20 C          62.5827   85.3017   16.1863 C.3     1  UNL1        0.1047
     21 C          62.9156   83.9131   15.7269 C.3     1  UNL1        0.1595
     22 O          64.1509   83.6687   14.9118 O.3     1  UNL1       -0.3508
     23 C          65.0533   84.8128   14.5561 C.3     1  UNL1        0.1595
     24 C          64.7205   86.2014   15.0155 C.3     1  UNL1        0.1047
     25 C          63.5480   89.0764   12.9264 C.3     1  UNL1        0.1246
     26 C          62.4419   89.4156   11.9715 C.3     1  UNL1        0.1484
     27 O          61.8605   90.7982   11.9579 O.3     1  UNL1       -0.3810
     28 H          62.3091   91.3442   12.6224 H       1  UNL1        0.2105
     29 C          61.9174   88.3720   11.0303 C.3     1  UNL1        0.1075
     30 N          61.7172   88.7021    9.5807 N.am    1  UNL1       -0.2695
     31 C          60.4469   88.3041    8.8895 C.2     1  UNL1        0.4020
     32 O          59.3768   87.5761    9.6477 O.2     1  UNL1       -0.2264
     33 H          62.4196   89.1799    9.0831 H       1  UNL1        0.1528
     34 O          60.2467   88.6341    7.4399 O.3     1  UNL1       -0.4291
     35 C          58.9534   89.2391    6.9802 C.3     1  UNL1        0.2447
     36 C          58.9598   90.3292    5.9499 C.ar    1  UNL1        0.0714
     37 C          57.7512   91.0116    5.3807 C.ar    1  UNL1        0.1053
     38 N          58.2203   92.0325    4.3869 N.ar    1  UNL1       -0.2350
     39 C          59.7188   91.9811    4.3417 C.ar    1  UNL1        0.1343
     40 S          60.1758   90.9284    5.3077 S.2     1  UNL1       -0.0652
     41 C          61.5932   86.9986   11.5385 C.3     1  UNL1        0.0485
     42 C          62.3153   85.8050   10.9871 C.ar    1  UNL1       -0.0204
     43 C          62.7450   84.6987   11.9044 C.ar    1  UNL1       -0.0042
     44 C          63.4671   83.5052   11.3530 C.ar    1  UNL1       -0.0003
     45 C          63.7594   83.4179    9.8844 C.ar    1  UNL1       -0.0000
     46 C          63.3297   84.5241    8.9671 C.ar    1  UNL1       -0.0003
     47 C          62.6076   85.7177    9.5185 C.ar    1  UNL1       -0.0042
@<TRIPOS>BOND
     1    15    16    1
     2    16    13    1
     3    13    14    1
     4    13     4    1
     5     4     5   ar
     6     5     6   ar
     7     6     7   ar
     8     7     8   ar
     9     8     9   ar
    10     9     1    1
    11     1     2    2
    12     1     3   am
    13     3    17    1
    14    17    18    1
    15    18    19    1
    16    19    20    1
    17    20    21    1
    18    21    22    1
    19    22    23    1
    20    23    24    1
    21     3    25    1
    22    25    26    1
    23    26    27    1
    24    26    29    1
    25    29    41    1
    26    41    42    1
    27    42    43   ar
    28    43    44   ar
    29    44    45   ar
    30    45    46   ar
    31    46    47   ar
    32    29    30    1
    33    30    31   am
    34    31    32    2
    35    31    34    1
    36    34    35    1
    37    35    36    1
    38    36    37   ar
    39    37    38   ar
    40    38    39   ar
    41    39    40   ar
    42     9    10   ar
    43    10    11   ar
    44    11    12   ar
    45    12     4   ar
    46    11     6   ar
    47    24    19    1
    48    47    42   ar
    49    40    36   ar
    50    27    28    1
    51    30    33    1
@<TRIPOS>MOLECULE
*****
 47 51 0 0 0
SMALL
GASTEIGER

@<TRIPOS>ATOM
      1 C          59.4573   88.3970    7.4168 C.2     1  UNL1        0.2492
      2 O          58.9880   87.0135    7.0768 O.2     1  UNL1       -0.2699
      3 N          60.1263   88.6596    8.7334 N.am    1  UNL1       -0.2721
      4 C          60.4003   92.9396    3.0313 C.ar    1  UNL1        0.2924
      5 N          58.9666   92.8503    3.4630 N.ar    1  UNL1       -0.1946
      6 C          58.8579   91.7597    4.4871 C.ar    1  UNL1        0.1202
      7 C          57.6911   91.2236    5.2624 C.ar    1  UNL1        0.0225
      8 C          57.8909   90.1027    6.2390 C.ar    1  UNL1        0.0063
      9 C          59.2575   89.5180    6.4402 C.ar    1  UNL1        0.0567
     10 C          60.4243   90.0541    5.6649 C.ar    1  UNL1        0.0437
     11 C          60.2245   91.1750    4.6884 C.ar    1  UNL1        0.1662
     12 O          61.1777   91.9042    3.7886 O.2     1  UNL1       -0.4237
     13 N          60.9586   93.8963    2.0199 N.pl3   1  UNL1       -0.2619
     14 C          60.5694   95.3442    2.0624 C.3     1  UNL1        0.1166
     15 C          61.4240   92.4598   -0.0944 C.3     1  UNL1        0.0233
     16 C          61.9061   93.4050    0.9659 C.3     1  UNL1        0.0952
     17 C          60.3261   87.5387    9.7100 C.3     1  UNL1        0.1111
     18 C          60.8670   86.2213    9.2392 C.3     1  UNL1        0.0940
     19 N          61.8422   85.4636   10.0905 N.3     1  UNL1       -0.2670
     20 C          61.7345   85.5201   11.5856 C.3     1  UNL1        0.1047
     21 C          62.7097   84.7624   12.4370 C.3     1  UNL1        0.1595
     22 O          63.7926   83.9481   11.7933 O.3     1  UNL1       -0.3508
     23 C          63.9002   83.8915   10.2983 C.3     1  UNL1        0.1595
     24 C          62.9250   84.6493    9.4468 C.3     1  UNL1        0.1047
     25 C          60.5956   90.0432    9.0734 C.3     1  UNL1        0.1246
     26 C          61.0912   90.3484   10.4560 C.3     1  UNL1        0.1484
     27 O          60.1129   90.5979   11.5653 O.3     1  UNL1       -0.3810
     28 H          59.2088   90.5247   11.2217 H       1  UNL1        0.2105
     29 C          62.5651   90.4041   10.7290 C.3     1  UNL1        0.1075
     30 N          63.2644   89.2144   11.3169 N.am    1  UNL1       -0.2695
     31 C          63.1081   88.8972   12.7747 C.2     1  UNL1        0.4020
     32 O          62.2526   89.7698   13.6445 O.2     1  UNL1       -0.2264
     33 H          63.8259   88.6416   10.7460 H       1  UNL1        0.1528
     34 O          63.8074   87.7075   13.3626 O.3     1  UNL1       -0.4291
     35 C          64.3725   87.7797   14.7502 C.3     1  UNL1        0.2447
     36 C          63.6593   87.1082   15.8862 C.ar    1  UNL1        0.0714
     37 C          63.4217   85.6341   16.0299 C.ar    1  UNL1        0.1053
     38 N          62.6742   85.4077   17.3105 N.ar    1  UNL1       -0.2350
     39 C          62.4497   86.7419   17.9583 C.ar    1  UNL1        0.1343
     40 S          63.0586   87.7929   17.0780 S.2     1  UNL1       -0.0652
     41 C          63.3396   91.6494   10.4142 C.3     1  UNL1        0.0485
     42 C          64.6042   91.9550   11.1609 C.ar    1  UNL1       -0.0204
     43 C          64.6267   91.8829   12.6589 C.ar    1  UNL1       -0.0042
     44 C          65.8912   92.1885   13.4056 C.ar    1  UNL1       -0.0003
     45 C          67.1333   92.5663   12.6542 C.ar    1  UNL1       -0.0000
     46 C          67.1108   92.6384   11.1561 C.ar    1  UNL1       -0.0003
     47 C          65.8462   92.3328   10.4095 C.ar    1  UNL1       -0.0042
@<TRIPOS>BOND
     1    15    16    1
     2    16    13    1
     3    13    14    1
     4    13     4    1
     5     4     5   ar
     6     5     6   ar
     7     6     7   ar
     8     7     8   ar
     9     8     9   ar
    10     9     1    1
    11     1     2    2
    12     1     3   am
    13     3    17    1
    14    17    18    1
    15    18    19    1
    16    19    20    1
    17    20    21    1
    18    21    22    1
    19    22    23    1
    20    23    24    1
    21     3    25    1
    22    25    26    1
    23    26    27    1
    24    26    29    1
    25    29    41    1
    26    41    42    1
    27    42    43   ar
    28    43    44   ar
    29    44    45   ar
    30    45    46   ar
    31    46    47   ar
    32    29    30    1
    33    30    31   am
    34    31    32    2
    35    31    34    1
    36    34    35    1
    37    35    36    1
    38    36    37   ar
    39    37    38   ar
    40    38    39   ar
    41    39    40   ar
    42     9    10   ar
    43    10    11   ar
    44    11    12   ar
    45    12     4   ar
    46    11     6   ar
    47    24    19    1
    48    47    42   ar
    49    40    36   ar
    50    27    28    1
    51    30    33    1
@<TRIPOS>MOLECULE
*****
 47 51 0 0 0
SMALL
GASTEIGER

@<TRIPOS>ATOM
      1 C          63.6103   86.5459   15.1441 C.2     1  UNL1        0.2492
      2 O          63.5715   85.6031   16.3101 O.2     1  UNL1       -0.2699
      3 N          63.3828   86.0296   13.7543 N.am    1  UNL1       -0.2721
      4 C          66.0651   92.4334   14.8842 C.ar    1  UNL1        0.2924
      5 N          64.9060   92.3384   15.8315 N.ar    1  UNL1       -0.1946
      6 C          64.4090   90.9232   15.8156 C.ar    1  UNL1        0.1202
      7 C          63.2908   90.2438   16.5490 C.ar    1  UNL1        0.0225
      8 C          63.0246   88.7847   16.3251 C.ar    1  UNL1        0.0063
      9 C          63.8766   88.0051   15.3679 C.ar    1  UNL1        0.0567
     10 C          64.9948   88.6845   14.6345 C.ar    1  UNL1        0.0437
     11 C          65.2610   90.1436   14.8583 C.ar    1  UNL1        0.1662
     12 O          66.2845   91.0770   14.2827 O.2     1  UNL1       -0.4237
     13 N          66.8644   93.6682   14.5900 N.pl3   1  UNL1       -0.2619
     14 C          66.4521   94.5800   13.4727 C.3     1  UNL1        0.1166
     15 C          68.8879   92.8846   16.0188 C.3     1  UNL1        0.0233
     16 C          68.0761   93.9910   15.4130 C.3     1  UNL1        0.0952
     17 C          63.1165   84.5704   13.5305 C.3     1  UNL1        0.1111
     18 C          63.8152   83.8421   12.4209 C.3     1  UNL1        0.0940
     19 N          63.4386   82.4262   12.0993 N.3     1  UNL1       -0.2670
     20 C          63.5254   81.9295   10.6865 C.3     1  UNL1        0.1047
     21 C          63.1487   80.5137   10.3649 C.3     1  UNL1        0.1595
     22 O          62.6852   79.5945   11.4559 O.3     1  UNL1       -0.3508
     23 C          62.5984   80.0912   12.8686 C.3     1  UNL1        0.1595
     24 C          62.9751   81.5071   13.1903 C.3     1  UNL1        0.1047
     25 C          63.4215   86.9723   12.5882 C.3     1  UNL1        0.1246
     26 C          62.2065   87.1498   11.7266 C.3     1  UNL1        0.1484
     27 O          60.9920   86.3007   11.9585 O.3     1  UNL1       -0.3810
     28 H          61.1580   85.6938   12.6968 H       1  UNL1        0.2105
     29 C          62.2062   88.1765   10.6330 C.3     1  UNL1        0.1075
     30 N          63.1387   89.3493   10.7049 N.am    1  UNL1       -0.2695
     31 C          63.0829   90.2809   11.8791 C.2     1  UNL1        0.4020
     32 O          62.0945   90.0399   12.9814 O.2     1  UNL1       -0.2264
     33 H          63.7874   89.5075    9.9814 H       1  UNL1        0.1528
     34 O          64.0154   91.4537   11.9511 O.3     1  UNL1       -0.4291
     35 C          64.2570   92.2955   10.7334 C.3     1  UNL1        0.2447
     36 C          65.6146   92.8830   10.4852 C.ar    1  UNL1        0.0714
     37 C          66.9287   92.2118   10.7553 C.ar    1  UNL1        0.1053
     38 N          68.0228   93.1588   10.3603 N.ar    1  UNL1       -0.2350
     39 C          67.3851   94.4154    9.8460 C.ar    1  UNL1        0.1343
     40 S          65.8967   94.2449    9.9232 S.2     1  UNL1       -0.0652
     41 C          61.2733   88.0304    9.4674 C.3     1  UNL1        0.0485
     42 C          61.3934   86.8463    8.5545 C.ar    1  UNL1       -0.0204
     43 C          62.6935   86.1050    8.4547 C.ar    1  UNL1       -0.0042
     44 C          62.8136   84.9209    7.5418 C.ar    1  UNL1       -0.0003
     45 C          61.6334   84.4781    6.7287 C.ar    1  UNL1       -0.0000
     46 C          60.3333   85.2194    6.8285 C.ar    1  UNL1       -0.0003
     47 C          60.2133   86.4035    7.7414 C.ar    1  UNL1       -0.0042
@<TRIPOS>BOND
     1    15    16    1
     2    16    13    1
     3    13    14    1
     4    13     4    1
     5     4     5   ar
     6     5     6   ar
     7     6     7   ar
     8     7     8   ar
     9     8     9   ar
    10     9     1    1
    11     1     2    2
    12     1     3   am
    13     3    17    1
    14    17    18    1
    15    18    19    1
    16    19    20    1
    17    20    21    1
    18    21    22    1
    19    22    23    1
    20    23    24    1
    21     3    25    1
    22    25    26    1
    23    26    27    1
    24    26    29    1
    25    29    41    1
    26    41    42    1
    27    42    43   ar
    28    43    44   ar
    29    44    45   ar
    30    45    46   ar
    31    46    47   ar
    32    29    30    1
    33    30    31   am
    34    31    32    2
    35    31    34    1
    36    34    35    1
    37    35    36    1
    38    36    37   ar
    39    37    38   ar
    40    38    39   ar
    41    39    40   ar
    42     9    10   ar
    43    10    11   ar
    44    11    12   ar
    45    12     4   ar
    46    11     6   ar
    47    24    19    1
    48    47    42   ar
    49    40    36   ar
    50    27    28    1
    51    30    33    1
@<TRIPOS>MOLECULE
*****
 47 51 0 0 0
SMALL
GASTEIGER

@<TRIPOS>ATOM
      1 C          61.4593   89.2811   10.9910 C.2     1  UNL1        0.2492
      2 O          60.1900   89.8205   10.4014 O.2     1  UNL1       -0.2699
      3 N          61.6168   87.8055   11.2100 N.am    1  UNL1       -0.2721
      4 C          65.9482   93.8183   10.8497 C.ar    1  UNL1        0.2924
      5 N          65.8738   93.1287   12.1797 N.ar    1  UNL1       -0.1946
      6 C          64.7949   92.0894   12.1032 C.ar    1  UNL1        0.1202
      7 C          64.2754   91.1061   13.1098 C.ar    1  UNL1        0.0225
      8 C          63.1636   90.1700   12.7390 C.ar    1  UNL1        0.0063
      9 C          62.5712   90.2172   11.3618 C.ar    1  UNL1        0.0567
     10 C          63.0908   91.2005   10.3552 C.ar    1  UNL1        0.0437
     11 C          64.2026   92.1366   10.7260 C.ar    1  UNL1        0.1662
     12 O          64.9154   93.2051    9.9513 O.2     1  UNL1       -0.4237
     13 N          66.8901   94.9265   10.4826 N.pl3   1  UNL1       -0.2619
     14 C          66.7143   96.2899   11.0828 C.3     1  UNL1        0.1166
     15 C          68.3187   93.2695    9.0814 C.3     1  UNL1        0.0233
     16 C          68.0078   94.6713    9.5154 C.3     1  UNL1        0.0952
     17 C          60.5049   86.8694   10.8392 C.3     1  UNL1        0.1111
     18 C          60.0632   86.7582    9.4101 C.3     1  UNL1        0.0940
     19 N          60.8983   85.9964    8.4241 N.3     1  UNL1       -0.2670
     20 C          60.2688   85.4352    7.1836 C.3     1  UNL1        0.1047
     21 C          61.1038   84.6734    6.1976 C.3     1  UNL1        0.1595
     22 O          62.5684   84.4728    6.4520 O.3     1  UNL1       -0.3508
     23 C          63.1979   85.0339    7.6925 C.3     1  UNL1        0.1595
     24 C          62.3628   85.7958    8.6786 C.3     1  UNL1        0.1047
     25 C          62.8862   87.2661   11.7996 C.3     1  UNL1        0.1246
     26 C          62.9440   85.8483   12.2860 C.3     1  UNL1        0.1484
     27 O          62.0377   84.8129   11.6888 O.3     1  UNL1       -0.3810
     28 H          61.4827   85.2234   11.0074 H       1  UNL1        0.2105
     29 C          63.9080   85.4659   13.3697 C.3     1  UNL1        0.1075
     30 N          64.2244   84.0205   13.6163 N.am    1  UNL1       -0.2695
     31 C          63.2202   83.1384   14.2971 C.2     1  UNL1        0.4020
     32 O          61.8996   83.7017   14.7313 O.2     1  UNL1       -0.2264
     33 H          65.0912   83.6508   13.3313 H       1  UNL1        0.1528
     34 O          63.5367   81.6930   14.5437 O.3     1  UNL1       -0.4291
     35 C          62.7141   80.6229   13.8893 C.3     1  UNL1        0.2447
     36 C          62.8217   80.3931   12.4110 C.ar    1  UNL1        0.0714
     37 C          62.6140   79.0862   11.7044 C.ar    1  UNL1        0.1053
     38 N          62.8198   79.3151   10.2363 N.ar    1  UNL1       -0.2350
     39 C          63.1545   80.7635   10.0355 C.ar    1  UNL1        0.1343
     40 S          63.1557   81.4297   11.3795 S.2     1  UNL1       -0.0652
     41 C          64.5556   86.5288   14.2068 C.3     1  UNL1        0.0485
     42 C          63.9201   86.9595   15.4955 C.ar    1  UNL1       -0.0204
     43 C          63.7000   88.4171   15.7728 C.ar    1  UNL1       -0.0042
     44 C          63.0645   88.8478   17.0614 C.ar    1  UNL1       -0.0003
     45 C          62.6490   87.8210   18.0728 C.ar    1  UNL1       -0.0000
     46 C          62.8691   86.3634   17.7955 C.ar    1  UNL1       -0.0003
     47 C          63.5046   85.9326   16.5068 C.ar    1  UNL1       -0.0042
@<TRIPOS>BOND
     1    15    16    1
     2    16    13    1
     3    13    14    1
     4    13     4    1
     5     4     5   ar
     6     5     6   ar
     7     6     7   ar
     8     7     8   ar
     9     8     9   ar
    10     9     1    1
    11     1     2    2
    12     1     3   am
    13     3    17    1
    14    17    18    1
    15    18    19    1
    16    19    20    1
    17    20    21    1
    18    21    22    1
    19    22    23    1
    20    23    24    1
    21     3    25    1
    22    25    26    1
    23    26    27    1
    24    26    29    1
    25    29    41    1
    26    41    42    1
    27    42    43   ar
    28    43    44   ar
    29    44    45   ar
    30    45    46   ar
    31    46    47   ar
    32    29    30    1
    33    30    31   am
    34    31    32    2
    35    31    34    1
    36    34    35    1
    37    35    36    1
    38    36    37   ar
    39    37    38   ar
    40    38    39   ar
    41    39    40   ar
    42     9    10   ar
    43    10    11   ar
    44    11    12   ar
    45    12     4   ar
    46    11     6   ar
    47    24    19    1
    48    47    42   ar
    49    40    36   ar
    50    27    28    1
    51    30    33    1
@<TRIPOS>MOLECULE
*****
 47 51 0 0 0
SMALL
GASTEIGER

@<TRIPOS>ATOM
      1 C          61.4657   89.7372   10.8927 C.2     1  UNL1        0.2492
      2 O          60.2285   90.4490   10.4314 O.2     1  UNL1       -0.2699
      3 N          61.4946   88.2383   10.9413 N.am    1  UNL1       -0.2721
      4 C          66.2767   92.2663   14.2416 C.ar    1  UNL1        0.2924
      5 N          66.2513   92.7505   12.8222 N.ar    1  UNL1       -0.1946
      6 C          65.0906   92.0990   12.1307 C.ar    1  UNL1        0.1202
      7 C          64.5743   92.1987   10.7259 C.ar    1  UNL1        0.0225
      8 C          63.3661   91.4115   10.3133 C.ar    1  UNL1        0.0063
      9 C          62.6740   90.5245   11.3054 C.ar    1  UNL1        0.0567
     10 C          63.1903   90.4247   12.7102 C.ar    1  UNL1        0.0437
     11 C          64.3985   91.2120   13.1229 C.ar    1  UNL1        0.1662
     12 O          65.1316   91.3154   14.4274 O.2     1  UNL1       -0.4237
     13 N          67.2724   92.6632   15.2910 N.pl3   1  UNL1       -0.2619
     14 C          66.8621   92.7150   16.7328 C.3     1  UNL1        0.1166
     15 C          69.5166   93.8715   15.7941 C.3     1  UNL1        0.0233
     16 C          68.6784   93.0083   14.8985 C.3     1  UNL1        0.0952
     17 C          60.2863   87.4511   10.5285 C.3     1  UNL1        0.1111
     18 C          59.9892   87.2409    9.0734 C.3     1  UNL1        0.0940
     19 N          60.8256   86.2926    8.2665 N.3     1  UNL1       -0.2670
     20 C          60.2063   85.5172    7.1416 C.3     1  UNL1        0.1047
     21 C          61.0426   84.5689    6.3347 C.3     1  UNL1        0.1595
     22 O          62.4983   84.3958    6.6527 O.3     1  UNL1       -0.3508
     23 C          63.1176   85.1711    7.7776 C.3     1  UNL1        0.1595
     24 C          62.2812   86.1195    8.5845 C.3     1  UNL1        0.1047
     25 C          62.7318   87.5266   11.4026 C.3     1  UNL1        0.1246
     26 C          62.6345   86.1361   11.9568 C.3     1  UNL1        0.1484
     27 O          61.5819   85.1973   11.4465 O.3     1  UNL1       -0.3810
     28 H          61.0529   85.6434   10.7667 H       1  UNL1        0.2105
     29 C          63.5900   85.6844   13.0213 C.3     1  UNL1        0.1075
     30 N          63.8686   84.2223   13.2077 N.am    1  UNL1       -0.2695
     31 C          64.2829   83.3824   12.0360 C.2     1  UNL1        0.4020
     32 O          64.4185   84.0045   10.6778 O.2     1  UNL1       -0.2264
     33 H          63.7796   83.8140   14.0991 H       1  UNL1        0.1528
     34 O          64.5615   81.9203   12.2224 O.3     1  UNL1       -0.4291
     35 C          64.1731   81.2399   13.5015 C.3     1  UNL1        0.2447
     36 C          62.7372   80.8913   13.7596 C.ar    1  UNL1        0.0714
     37 C          61.6887   81.8172   14.3015 C.ar    1  UNL1        0.1053
     38 N          60.4011   81.0538   14.3978 N.ar    1  UNL1       -0.2350
     39 C          60.6537   79.6561   13.9155 C.ar    1  UNL1        0.1343
     40 S          62.0975   79.5557   13.5210 S.2     1  UNL1       -0.0652
     41 C          64.2668   86.6948   13.8993 C.3     1  UNL1        0.0485
     42 C          63.7532   86.9474   15.2858 C.ar    1  UNL1       -0.0204
     43 C          63.6073   88.3537   15.7869 C.ar    1  UNL1       -0.0042
     44 C          63.0937   88.6063   17.1734 C.ar    1  UNL1       -0.0003
     45 C          62.7260   87.4527   18.0588 C.ar    1  UNL1       -0.0000
     46 C          62.8720   86.0464   17.5577 C.ar    1  UNL1       -0.0003
     47 C          63.3856   85.7938   16.1712 C.ar    1  UNL1       -0.0042
@<TRIPOS>BOND
     1    15    16    1
     2    16    13    1
     3    13    14    1
     4    13     4    1
     5     4     5   ar
     6     5     6   ar
     7     6     7   ar
     8     7     8   ar
     9     8     9   ar
    10     9     1    1
    11     1     2    2
    12     1     3   am
    13     3    17    1
    14    17    18    1
    15    18    19    1
    16    19    20    1
    17    20    21    1
    18    21    22    1
    19    22    23    1
    20    23    24    1
    21     3    25    1
    22    25    26    1
    23    26    27    1
    24    26    29    1
    25    29    41    1
    26    41    42    1
    27    42    43   ar
    28    43    44   ar
    29    44    45   ar
    30    45    46   ar
    31    46    47   ar
    32    29    30    1
    33    30    31   am
    34    31    32    2
    35    31    34    1
    36    34    35    1
    37    35    36    1
    38    36    37   ar
    39    37    38   ar
    40    38    39   ar
    41    39    40   ar
    42     9    10   ar
    43    10    11   ar
    44    11    12   ar
    45    12     4   ar
    46    11     6   ar
    47    24    19    1
    48    47    42   ar
    49    40    36   ar
    50    27    28    1
    51    30    33    1
