@<TRIPOS>MOLECULE
*****
 30 32 0 0 0
SMALL
GASTEIGER

@<TRIPOS>ATOM
      1 C          63.4135   90.2604   11.8351 C.ar    1  UNL1        0.0800
      2 C          63.1113   89.6849   13.1869 C.ar    1  UNL1        0.0234
      3 C          63.7263   90.2897   14.4141 C.ar    1  UNL1        0.0722
      4 C          64.6435   91.4700   14.2894 C.ar    1  UNL1        0.0857
      5 N          64.9457   92.0455   12.9377 N.ar    1  UNL1       -0.2917
      6 C          65.8053   93.1965   12.5062 C.ar    1  UNL1        0.0567
      7 C          66.6078   94.0850   13.4099 C.3     1  UNL1        0.0517
      8 C          65.7216   93.3031   11.0123 C.ar    1  UNL1        0.0730
      9 C          66.4257   94.3169   10.1598 C.3     1  UNL1        0.0534
     10 N          64.8102   92.2180   10.5205 N.ar    1  UNL1       -0.2299
     11 C          64.3307   91.4408   11.7105 C.ar    1  UNL1        0.1603
     12 C          63.4241   89.7141   15.7659 C.2     1  UNL1        0.2474
     13 O          63.2198   90.6248   16.9402 O.2     1  UNL1       -0.2701
     14 N          63.3262   88.2279   15.9435 N.am    1  UNL1       -0.2984
     15 H          63.4603   87.6302   15.1728 H       1  UNL1        0.1498
     16 C          63.0240   87.6523   17.2953 C.3     1  UNL1        0.1215
     17 C          62.3349   86.3248   17.4082 C.3     1  UNL1        0.1583
     18 O          60.9274   86.1660   16.9144 O.3     1  UNL1       -0.3802
     19 H          60.3314   86.7051   17.4576 H       1  UNL1        0.2105
     20 N          62.7984   89.6557   10.6079 N.pl3   1  UNL1       -0.3267
     21 H          62.7286   90.1847    9.7805 H       1  UNL1        0.1472
     22 C          62.2898   88.2449   10.6413 C.3     1  UNL1        0.1137
     23 C          59.9629   89.9688    9.8577 C.3     1  UNL1        0.0307
     24 C          60.1602   88.6330    9.2045 C.ar    1  UNL1       -0.0245
     25 C          59.1941   88.1590    8.1595 C.ar    1  UNL1       -0.0045
     26 C          59.3914   86.8233    7.5063 C.ar    1  UNL1       -0.0007
     27 C          60.5549   85.9614    7.8981 C.ar    1  UNL1       -0.0045
     28 C          61.5210   86.4352    8.9431 C.ar    1  UNL1       -0.0245
     29 C          62.6844   85.5733    9.3348 C.3     1  UNL1        0.0307
     30 C          61.3237   87.7711    9.5963 C.ar    1  UNL1       -0.0105
@<TRIPOS>BOND
     1    23    24    1
     2    24    25   ar
     3    25    26   ar
     4    26    27   ar
     5    27    28   ar
     6    28    29    1
     7    28    30   ar
     8    30    22    1
     9    22    20    1
    10    20     1    1
    11     1     2   ar
    12     2     3   ar
    13     3    12    1
    14    12    13    2
    15    12    14   am
    16    14    16    1
    17    16    17    1
    18    17    18    1
    19     3     4   ar
    20     4     5   ar
    21     5     6   ar
    22     6     7    1
    23     6     8   ar
    24     8     9    1
    25     8    10   ar
    26    10    11   ar
    27    30    24   ar
    28    11     1   ar
    29    11     5   ar
    30    20    21    1
    31    14    15    1
    32    18    19    1
@<TRIPOS>MOLECULE
*****
 30 32 0 0 0
SMALL
GASTEIGER

@<TRIPOS>ATOM
      1 C          61.5193   87.1121   11.1342 C.ar    1  UNL1        0.0800
      2 C          60.6742   87.2288    9.9005 C.ar    1  UNL1        0.0234
      3 C          60.6611   88.5089    9.1187 C.ar    1  UNL1        0.0722
      4 C          61.4931   89.6723    9.5707 C.ar    1  UNL1        0.0857
      5 N          62.3383   89.5555   10.8044 N.ar    1  UNL1       -0.2917
      6 C          63.2552   90.5258   11.4884 C.ar    1  UNL1        0.0567
      7 C          63.5420   91.9299   11.0456 C.3     1  UNL1        0.0517
      8 C          63.8350   89.8453   12.6929 C.ar    1  UNL1        0.0730
      9 C          64.8033   90.4497   13.6662 C.3     1  UNL1        0.0534
     10 N          63.2764   88.4546   12.7534 N.ar    1  UNL1       -0.2299
     11 C          62.3514   88.2755   11.5861 C.ar    1  UNL1        0.1603
     12 C          59.8159   88.6257    7.8850 C.2     1  UNL1        0.2474
     13 O          58.9842   87.4622    7.4327 O.2     1  UNL1       -0.2701
     14 N          59.8025   89.9059    7.1035 N.am    1  UNL1       -0.2984
     15 H          60.3484   90.6696    7.4003 H       1  UNL1        0.1498
     16 C          58.9574   90.0227    5.8698 C.3     1  UNL1        0.1215
     17 C          58.8231   91.3454    5.1751 C.3     1  UNL1        0.1583
     18 O          57.5042   92.0600    5.1712 O.3     1  UNL1       -0.3802
     19 H          56.8583   91.5439    4.6639 H       1  UNL1        0.2105
     20 N          61.5324   85.8320   11.9160 N.pl3   1  UNL1       -0.3267
     21 H          60.6868   85.4405   12.2336 H       1  UNL1        0.1472
     22 C          62.8339   85.1484   12.2139 C.3     1  UNL1        0.1137
     23 C          63.5984   83.3266    9.9564 C.3     1  UNL1        0.0307
     24 C          63.2522   82.7532   11.2985 C.ar    1  UNL1       -0.0245
     25 C          63.2882   81.2689   11.5118 C.ar    1  UNL1       -0.0045
     26 C          62.9419   80.6955   12.8539 C.ar    1  UNL1       -0.0007
     27 C          62.5597   81.6064   13.9827 C.ar    1  UNL1       -0.0045
     28 C          62.5237   83.0907   13.7694 C.ar    1  UNL1       -0.0245
     29 C          62.1414   84.0016   14.8982 C.3     1  UNL1        0.0307
     30 C          62.8699   83.6641   12.4272 C.ar    1  UNL1       -0.0105
@<TRIPOS>BOND
     1    23    24    1
     2    24    25   ar
     3    25    26   ar
     4    26    27   ar
     5    27    28   ar
     6    28    29    1
     7    28    30   ar
     8    30    22    1
     9    22    20    1
    10    20     1    1
    11     1     2   ar
    12     2     3   ar
    13     3    12    1
    14    12    13    2
    15    12    14   am
    16    14    16    1
    17    16    17    1
    18    17    18    1
    19     3     4   ar
    20     4     5   ar
    21     5     6   ar
    22     6     7    1
    23     6     8   ar
    24     8     9    1
    25     8    10   ar
    26    10    11   ar
    27    30    24   ar
    28    11     1   ar
    29    11     5   ar
    30    20    21    1
    31    14    15    1
    32    18    19    1
@<TRIPOS>MOLECULE
*****
 30 32 0 0 0
SMALL
GASTEIGER

@<TRIPOS>ATOM
      1 C          62.9883   87.5072   12.2793 C.ar    1  UNL1        0.0800
      2 C          62.2634   87.7495   10.9887 C.ar    1  UNL1        0.0234
      3 C          61.6923   86.5944   10.2210 C.ar    1  UNL1        0.0722
      4 C          61.8462   85.1969   10.7439 C.ar    1  UNL1        0.0857
      5 N          62.5711   84.9546   12.0345 N.ar    1  UNL1       -0.2917
      6 C          62.8772   83.6973   12.7930 C.ar    1  UNL1        0.0567
      7 C          62.4908   82.3061   12.3864 C.3     1  UNL1        0.0517
      8 C          63.6374   84.0754   14.0296 C.ar    1  UNL1        0.0730
      9 C          64.1448   83.1286   15.0767 C.3     1  UNL1        0.0534
     10 N          63.8012   85.5664   14.0353 N.ar    1  UNL1       -0.2299
     11 C          63.1422   86.1097   12.8022 C.ar    1  UNL1        0.1603
     12 C          60.9674   86.8366    8.9303 C.2     1  UNL1        0.2474
     13 O          61.2000   85.9304    7.7579 O.2     1  UNL1       -0.2701
     14 N          60.0098   87.9852    8.8121 N.am    1  UNL1       -0.2984
     15 H          59.8572   88.5800    9.5816 H       1  UNL1        0.1498
     16 C          59.2849   88.2275    7.5215 C.3     1  UNL1        0.1215
     17 C          59.4761   89.5202    6.7850 C.3     1  UNL1        0.1583
     18 O          58.4222   90.0045    5.8338 O.3     1  UNL1       -0.3802
     19 H          58.3621   89.3960    5.0808 H       1  UNL1        0.2105
     20 N          63.5594   88.6624   13.0471 N.pl3   1  UNL1       -0.3267
     21 H          64.2433   88.5046   13.7375 H       1  UNL1        0.1472
     22 C          63.0885   90.0579   12.7630 C.3     1  UNL1        0.1137
     23 C          65.0402   91.0631   14.8076 C.3     1  UNL1        0.0307
     24 C          65.0542   91.6258   13.4172 C.ar    1  UNL1       -0.0245
     25 C          66.0440   92.6910   13.0491 C.ar    1  UNL1       -0.0045
     26 C          66.0580   93.2536   11.6587 C.ar    1  UNL1       -0.0007
     27 C          65.0822   92.7510   10.6364 C.ar    1  UNL1       -0.0045
     28 C          64.0923   91.6858   11.0044 C.ar    1  UNL1       -0.0245
     29 C          63.1165   91.1832    9.9821 C.3     1  UNL1        0.0307
     30 C          64.0783   91.1232   12.3949 C.ar    1  UNL1       -0.0105
@<TRIPOS>BOND
     1    23    24    1
     2    24    25   ar
     3    25    26   ar
     4    26    27   ar
     5    27    28   ar
     6    28    29    1
     7    28    30   ar
     8    30    22    1
     9    22    20    1
    10    20     1    1
    11     1     2   ar
    12     2     3   ar
    13     3    12    1
    14    12    13    2
    15    12    14   am
    16    14    16    1
    17    16    17    1
    18    17    18    1
    19     3     4   ar
    20     4     5   ar
    21     5     6   ar
    22     6     7    1
    23     6     8   ar
    24     8     9    1
    25     8    10   ar
    26    10    11   ar
    27    30    24   ar
    28    11     1   ar
    29    11     5   ar
    30    20    21    1
    31    14    15    1
    32    18    19    1
@<TRIPOS>MOLECULE
*****
 30 32 0 0 0
SMALL
GASTEIGER

@<TRIPOS>ATOM
      1 C          63.0023   87.5235   12.2721 C.ar    1  UNL1        0.0800
      2 C          62.2640   87.7736   10.9906 C.ar    1  UNL1        0.0234
      3 C          61.6782   86.6238   10.2259 C.ar    1  UNL1        0.0722
      4 C          61.8307   85.2240   10.7427 C.ar    1  UNL1        0.0857
      5 N          62.5691   84.9739   12.0242 N.ar    1  UNL1       -0.2917
      6 C          62.8773   83.7126   12.7753 C.ar    1  UNL1        0.0567
      7 C          62.4791   82.3247   12.3688 C.3     1  UNL1        0.0517
      8 C          63.6535   84.0829   14.0043 C.ar    1  UNL1        0.0730
      9 C          64.1679   83.1302   15.0426 C.3     1  UNL1        0.0534
     10 N          63.8251   85.5730   14.0127 N.ar    1  UNL1       -0.2299
     11 C          63.1549   86.1236   12.7889 C.ar    1  UNL1        0.1603
     12 C          60.9398   86.8739    8.9444 C.2     1  UNL1        0.2474
     13 O          61.1614   85.9758    7.7636 O.2     1  UNL1       -0.2701
     14 N          59.9798   88.0221    8.8437 N.am    1  UNL1       -0.2984
     15 H          59.8344   88.6115    9.6187 H       1  UNL1        0.1498
     16 C          59.2415   88.2722    7.5622 C.3     1  UNL1        0.1215
     17 C          59.4887   89.5328    6.7879 C.3     1  UNL1        0.1583
     18 O          58.5026   89.9813    5.7502 O.3     1  UNL1       -0.3802
     19 H          58.4884   89.3426    5.0203 H       1  UNL1        0.2105
     20 N          63.5881   88.6733   13.0369 N.pl3   1  UNL1       -0.3267
     21 H          64.2805   88.5101   13.7175 H       1  UNL1        0.1472
     22 C          63.1190   90.0718   12.7647 C.3     1  UNL1        0.1137
     23 C          63.1352   91.2047    9.9869 C.3     1  UNL1        0.0307
     24 C          64.1170   91.7027   11.0057 C.ar    1  UNL1       -0.0245
     25 C          65.1069   92.7672   10.6356 C.ar    1  UNL1       -0.0045
     26 C          66.0887   93.2653   11.6545 C.ar    1  UNL1       -0.0007
     27 C          66.0805   92.6989   13.0434 C.ar    1  UNL1       -0.0045
     28 C          65.0907   91.6344   13.4135 C.ar    1  UNL1       -0.0245
     29 C          65.0825   91.0680   14.8024 C.3     1  UNL1        0.0307
     30 C          64.1088   91.1363   12.3946 C.ar    1  UNL1       -0.0105
@<TRIPOS>BOND
     1    23    24    1
     2    24    25   ar
     3    25    26   ar
     4    26    27   ar
     5    27    28   ar
     6    28    29    1
     7    28    30   ar
     8    30    22    1
     9    22    20    1
    10    20     1    1
    11     1     2   ar
    12     2     3   ar
    13     3    12    1
    14    12    13    2
    15    12    14   am
    16    14    16    1
    17    16    17    1
    18    17    18    1
    19     3     4   ar
    20     4     5   ar
    21     5     6   ar
    22     6     7    1
    23     6     8   ar
    24     8     9    1
    25     8    10   ar
    26    10    11   ar
    27    30    24   ar
    28    11     1   ar
    29    11     5   ar
    30    20    21    1
    31    14    15    1
    32    18    19    1
@<TRIPOS>MOLECULE
*****
 30 32 0 0 0
SMALL
GASTEIGER

@<TRIPOS>ATOM
      1 C          63.7695   87.2082   13.8685 C.ar    1  UNL1        0.0800
      2 C          64.3386   88.3759   14.6184 C.ar    1  UNL1        0.0234
      3 C          64.2108   89.7614   14.0580 C.ar    1  UNL1        0.0722
      4 C          63.5140   89.9791   12.7477 C.ar    1  UNL1        0.0857
      5 N          62.9448   88.8114   11.9977 N.ar    1  UNL1       -0.2917
      6 C          62.2102   88.7178   10.6933 C.ar    1  UNL1        0.0567
      7 C          61.8629   89.8660    9.7928 C.3     1  UNL1        0.0517
      8 C          61.8840   87.2745   10.4475 C.ar    1  UNL1        0.0730
      9 C          61.1530   86.7260    9.2580 C.3     1  UNL1        0.0534
     10 N          62.4169   86.4760   11.6000 N.ar    1  UNL1       -0.2299
     11 C          63.0726   87.4259   12.5581 C.ar    1  UNL1        0.1603
     12 C          64.7800   90.9292   14.8079 C.2     1  UNL1        0.2474
     13 O          63.9041   91.7307   15.7246 O.2     1  UNL1       -0.2701
     14 N          66.2250   91.2954   14.6411 N.am    1  UNL1       -0.2984
     15 H          66.7998   90.7694   14.0394 H       1  UNL1        0.1498
     16 C          66.7941   92.4632   15.3910 C.3     1  UNL1        0.1215
     17 C          68.2806   92.6330   15.4986 C.3     1  UNL1        0.1583
     18 O          69.1571   92.3332   14.3187 O.3     1  UNL1       -0.3802
     19 H          69.1161   91.3850   14.1182 H       1  UNL1        0.2105
     20 N          63.8972   85.8226   14.4289 N.pl3   1  UNL1       -0.3267
     21 H          63.6520   85.6460   15.3659 H       1  UNL1        0.1472
     22 C          64.3985   84.7061   13.5616 C.3     1  UNL1        0.1137
     23 C          64.5342   83.1571   10.9961 C.3     1  UNL1        0.0307
     24 C          63.6464   82.6870   12.1100 C.ar    1  UNL1       -0.0245
     25 C          62.8264   81.4423   11.9411 C.ar    1  UNL1       -0.0045
     26 C          61.9386   80.9722   13.0550 C.ar    1  UNL1       -0.0007
     27 C          61.8708   81.7467   14.3378 C.ar    1  UNL1       -0.0045
     28 C          62.6907   82.9913   14.5067 C.ar    1  UNL1       -0.0245
     29 C          62.6229   83.7658   15.7895 C.3     1  UNL1        0.0307
     30 C          63.5786   83.4615   13.3927 C.ar    1  UNL1       -0.0105
@<TRIPOS>BOND
     1    23    24    1
     2    24    25   ar
     3    25    26   ar
     4    26    27   ar
     5    27    28   ar
     6    28    29    1
     7    28    30   ar
     8    30    22    1
     9    22    20    1
    10    20     1    1
    11     1     2   ar
    12     2     3   ar
    13     3    12    1
    14    12    13    2
    15    12    14   am
    16    14    16    1
    17    16    17    1
    18    17    18    1
    19     3     4   ar
    20     4     5   ar
    21     5     6   ar
    22     6     7    1
    23     6     8   ar
    24     8     9    1
    25     8    10   ar
    26    10    11   ar
    27    30    24   ar
    28    11     1   ar
    29    11     5   ar
    30    20    21    1
    31    14    15    1
    32    18    19    1
@<TRIPOS>MOLECULE
*****
 30 32 0 0 0
SMALL
GASTEIGER

@<TRIPOS>ATOM
      1 C          63.7765   87.1544   13.8326 C.ar    1  UNL1        0.0800
      2 C          64.3467   88.3247   14.5778 C.ar    1  UNL1        0.0234
      3 C          64.2147   89.7087   14.0148 C.ar    1  UNL1        0.0722
      4 C          63.5124   89.9225   12.7068 C.ar    1  UNL1        0.0857
      5 N          62.9421   88.7523   11.9616 N.ar    1  UNL1       -0.2917
      6 C          62.2026   88.6548   10.6603 C.ar    1  UNL1        0.0567
      7 C          61.8500   89.8005    9.7586 C.3     1  UNL1        0.0517
      8 C          61.8775   87.2105   10.4189 C.ar    1  UNL1        0.0730
      9 C          61.1428   86.6583    9.2334 C.3     1  UNL1        0.0534
     10 N          62.4162   86.4153   11.5711 N.ar    1  UNL1       -0.2299
     11 C          63.0742   87.3683   12.5245 C.ar    1  UNL1        0.1603
     12 C          64.7850   90.8790   14.7600 C.2     1  UNL1        0.2474
     13 O          63.9415   91.6164   15.7573 O.2     1  UNL1       -0.2701
     14 N          66.1989   91.3119   14.5078 N.am    1  UNL1       -0.2984
     15 H          66.7525   90.8279   13.8533 H       1  UNL1        0.1498
     16 C          66.7692   92.4822   15.2529 C.3     1  UNL1        0.1215
     17 C          68.2444   92.5586   15.5136 C.3     1  UNL1        0.1583
     18 O          69.2167   92.3271   14.3950 O.3     1  UNL1       -0.3802
     19 H          69.1522   91.4066   14.0958 H       1  UNL1        0.2105
     20 N          63.9085   85.7703   14.3955 N.pl3   1  UNL1       -0.3267
     21 H          63.6529   85.5923   15.3295 H       1  UNL1        0.1472
     22 C          64.4299   84.6575   13.5354 C.3     1  UNL1        0.1137
     23 C          62.6959   83.6531   15.7681 C.3     1  UNL1        0.0307
     24 C          62.7526   82.9064   14.4684 C.ar    1  UNL1       -0.0245
     25 C          61.9423   81.6574   14.2850 C.ar    1  UNL1       -0.0045
     26 C          61.9989   80.9107   12.9853 C.ar    1  UNL1       -0.0007
     27 C          62.8659   81.4129   11.8690 C.ar    1  UNL1       -0.0045
     28 C          63.6762   82.6618   12.0524 C.ar    1  UNL1       -0.0245
     29 C          64.5432   83.1640   10.9361 C.3     1  UNL1        0.0307
     30 C          63.6196   83.4086   13.3521 C.ar    1  UNL1       -0.0105
@<TRIPOS>BOND
     1    23    24    1
     2    24    25   ar
     3    25    26   ar
     4    26    27   ar
     5    27    28   ar
     6    28    29    1
     7    28    30   ar
     8    30    22    1
     9    22    20    1
    10    20     1    1
    11     1     2   ar
    12     2     3   ar
    13     3    12    1
    14    12    13    2
    15    12    14   am
    16    14    16    1
    17    16    17    1
    18    17    18    1
    19     3     4   ar
    20     4     5   ar
    21     5     6   ar
    22     6     7    1
    23     6     8   ar
    24     8     9    1
    25     8    10   ar
    26    10    11   ar
    27    30    24   ar
    28    11     1   ar
    29    11     5   ar
    30    20    21    1
    31    14    15    1
    32    18    19    1
@<TRIPOS>MOLECULE
*****
 30 32 0 0 0
SMALL
GASTEIGER

@<TRIPOS>ATOM
      1 C          62.3785   88.9574   10.8313 C.ar    1  UNL1        0.0800
      2 C          62.8152   87.8018   11.6820 C.ar    1  UNL1        0.0234
      3 C          62.2693   86.4294   11.4202 C.ar    1  UNL1        0.0722
      4 C          61.2868   86.2127   10.3077 C.ar    1  UNL1        0.0857
      5 N          60.8501   87.3683    9.4570 N.ar    1  UNL1       -0.2917
      6 C          59.9022   87.4599    8.2981 C.ar    1  UNL1        0.0567
      7 C          59.1299   86.3221    7.6989 C.3     1  UNL1        0.0517
      8 C          59.8622   88.8888    7.8437 C.ar    1  UNL1        0.0730
      9 C          59.0427   89.4309    6.7102 C.3     1  UNL1        0.0534
     10 N          60.7854   89.6805    8.7217 N.ar    1  UNL1       -0.2299
     11 C          61.3960   88.7407    9.7188 C.ar    1  UNL1        0.1603
     12 C          62.7060   85.2736   12.2709 C.2     1  UNL1        0.2474
     13 O          62.5353   83.8691   11.7728 O.2     1  UNL1       -0.2701
     14 N          63.3134   85.5225   13.6196 N.am    1  UNL1       -0.2984
     15 H          63.4255   86.4444   13.9465 H       1  UNL1        0.1498
     16 C          63.7501   84.3669   14.4703 C.3     1  UNL1        0.1215
     17 C          62.7600   83.6725   15.3577 C.3     1  UNL1        0.1583
     18 O          62.4045   82.2371   15.1057 O.3     1  UNL1       -0.3802
     19 H          61.9414   82.1630   14.2566 H       1  UNL1        0.2105
     20 N          62.9243   90.3299   11.0931 N.pl3   1  UNL1       -0.3267
     21 H          63.1581   90.9187   10.3395 H       1  UNL1        0.1472
     22 C          63.1140   90.8052   12.5031 C.3     1  UNL1        0.1137
     23 C          64.1307   89.8223   15.1489 C.3     1  UNL1        0.0307
     24 C          64.9850   90.7199   14.3037 C.ar    1  UNL1       -0.0245
     25 C          66.3477   91.1261   14.7813 C.ar    1  UNL1       -0.0045
     26 C          67.2020   92.0237   13.9361 C.ar    1  UNL1       -0.0007
     27 C          66.6936   92.5152   12.6132 C.ar    1  UNL1       -0.0045
     28 C          65.3310   92.1090   12.1355 C.ar    1  UNL1       -0.0245
     29 C          64.8226   92.6005   10.8127 C.3     1  UNL1        0.0307
     30 C          64.4766   91.2113   12.9808 C.ar    1  UNL1       -0.0105
@<TRIPOS>BOND
     1    23    24    1
     2    24    25   ar
     3    25    26   ar
     4    26    27   ar
     5    27    28   ar
     6    28    29    1
     7    28    30   ar
     8    30    22    1
     9    22    20    1
    10    20     1    1
    11     1     2   ar
    12     2     3   ar
    13     3    12    1
    14    12    13    2
    15    12    14   am
    16    14    16    1
    17    16    17    1
    18    17    18    1
    19     3     4   ar
    20     4     5   ar
    21     5     6   ar
    22     6     7    1
    23     6     8   ar
    24     8     9    1
    25     8    10   ar
    26    10    11   ar
    27    30    24   ar
    28    11     1   ar
    29    11     5   ar
    30    20    21    1
    31    14    15    1
    32    18    19    1
@<TRIPOS>MOLECULE
*****
 30 32 0 0 0
SMALL
GASTEIGER

@<TRIPOS>ATOM
      1 C          62.3840   88.9430   10.8424 C.ar    1  UNL1        0.0800
      2 C          62.8216   87.7919   11.6987 C.ar    1  UNL1        0.0234
      3 C          62.2793   86.4172   11.4415 C.ar    1  UNL1        0.0722
      4 C          61.2994   86.1937   10.3281 C.ar    1  UNL1        0.0857
      5 N          60.8617   87.3448    9.4718 N.ar    1  UNL1       -0.2917
      6 C          59.9158   87.4294    8.3108 C.ar    1  UNL1        0.0567
      7 C          59.1471   86.2875    7.7148 C.3     1  UNL1        0.0517
      8 C          59.8735   88.8564    7.8503 C.ar    1  UNL1        0.0730
      9 C          59.0550   89.3920    6.7131 C.3     1  UNL1        0.0534
     10 N          60.7932   89.6537    8.7268 N.ar    1  UNL1       -0.2299
     11 C          61.4040   88.7195    9.7289 C.ar    1  UNL1        0.1603
     12 C          62.7169   85.2660   12.2979 C.2     1  UNL1        0.2474
     13 O          62.5251   83.8582   11.8171 O.2     1  UNL1       -0.2701
     14 N          63.3465   85.5226   13.6350 N.am    1  UNL1       -0.2984
     15 H          63.4724   86.4467   13.9505 H       1  UNL1        0.1498
     16 C          63.7841   84.3715   14.4913 C.3     1  UNL1        0.1215
     17 C          62.7884   83.6624   15.3607 C.3     1  UNL1        0.1583
     18 O          62.3978   82.2472   15.0531 O.3     1  UNL1       -0.3802
     19 H          61.9238   82.2191   14.2073 H       1  UNL1        0.2105
     20 N          62.9263   90.3178   11.0995 N.pl3   1  UNL1       -0.3267
     21 H          63.1554   90.9058   10.3439 H       1  UNL1        0.1472
     22 C          63.1195   90.7965   12.5079 C.3     1  UNL1        0.1137
     23 C          64.8140   92.5748   10.7856 C.3     1  UNL1        0.0307
     24 C          65.3277   92.1079   12.1153 C.ar    1  UNL1       -0.0245
     25 C          66.6886   92.5302   12.5839 C.ar    1  UNL1       -0.0045
     26 C          67.2023   92.0633   13.9136 C.ar    1  UNL1       -0.0007
     27 C          66.3550   91.1741   14.7747 C.ar    1  UNL1       -0.0045
     28 C          64.9942   90.7518   14.3062 C.ar    1  UNL1       -0.0245
     29 C          64.1469   89.8626   15.1673 C.3     1  UNL1        0.0307
     30 C          64.4804   91.2187   12.9764 C.ar    1  UNL1       -0.0105
@<TRIPOS>BOND
     1    23    24    1
     2    24    25   ar
     3    25    26   ar
     4    26    27   ar
     5    27    28   ar
     6    28    29    1
     7    28    30   ar
     8    30    22    1
     9    22    20    1
    10    20     1    1
    11     1     2   ar
    12     2     3   ar
    13     3    12    1
    14    12    13    2
    15    12    14   am
    16    14    16    1
    17    16    17    1
    18    17    18    1
    19     3     4   ar
    20     4     5   ar
    21     5     6   ar
    22     6     7    1
    23     6     8   ar
    24     8     9    1
    25     8    10   ar
    26    10    11   ar
    27    30    24   ar
    28    11     1   ar
    29    11     5   ar
    30    20    21    1
    31    14    15    1
    32    18    19    1
@<TRIPOS>MOLECULE
*****
 30 32 0 0 0
SMALL
GASTEIGER

@<TRIPOS>ATOM
      1 C          62.3212   87.3899   11.8532 C.ar    1  UNL1        0.0800
      2 C          63.1166   88.5722   12.3216 C.ar    1  UNL1        0.0234
      3 C          63.0342   89.8731   11.5795 C.ar    1  UNL1        0.0722
      4 C          62.1565   89.9917   10.3689 C.ar    1  UNL1        0.0857
      5 N          61.3611   88.8094    9.9005 N.ar    1  UNL1       -0.2917
      6 C          60.4169   88.6273    8.7492 C.ar    1  UNL1        0.0567
      7 C          60.0401   89.6747    7.7439 C.3     1  UNL1        0.0517
      8 C          59.9158   87.2138    8.7798 C.ar    1  UNL1        0.0730
      9 C          58.9498   86.5996    7.8104 C.3     1  UNL1        0.0534
     10 N          60.5502   86.5223    9.9500 N.ar    1  UNL1       -0.2299
     11 C          61.4435   87.5085   10.6426 C.ar    1  UNL1        0.1603
     12 C          63.8296   91.0555   12.0479 C.2     1  UNL1        0.2474
     13 O          63.8384   91.4252   13.5016 O.2     1  UNL1       -0.2701
     14 N          64.6162   91.8682   11.0626 N.am    1  UNL1       -0.2984
     15 H          64.6104   91.6255   10.1085 H       1  UNL1        0.1498
     16 C          65.4115   93.0505   11.5310 C.3     1  UNL1        0.1215
     17 C          65.9083   94.0606   10.5395 C.3     1  UNL1        0.1583
     18 O          65.0848   95.2757   10.2302 O.3     1  UNL1       -0.3802
     19 H          64.2636   95.0063    9.7899 H       1  UNL1        0.2105
     20 N          62.4036   86.0889   12.5954 N.pl3   1  UNL1       -0.3267
     21 H          61.7395   85.8756   13.2902 H       1  UNL1        0.1472
     22 C          63.4977   85.1128   12.2788 C.3     1  UNL1        0.1137
     23 C          63.9266   83.4068    9.8487 C.3     1  UNL1        0.0307
     24 C          63.4430   82.7855   11.1254 C.ar    1  UNL1       -0.0245
     25 C          63.1738   81.3111   11.1872 C.ar    1  UNL1       -0.0045
     26 C          62.6902   80.6898   12.4639 C.ar    1  UNL1       -0.0007
     27 C          62.4757   81.5428   13.6789 C.ar    1  UNL1       -0.0045
     28 C          62.7449   83.0171   13.6172 C.ar    1  UNL1       -0.0245
     29 C          62.5304   83.8702   14.8323 C.3     1  UNL1        0.0307
     30 C          63.2285   83.6385   12.3405 C.ar    1  UNL1       -0.0105
@<TRIPOS>BOND
     1    23    24    1
     2    24    25   ar
     3    25    26   ar
     4    26    27   ar
     5    27    28   ar
     6    28    29    1
     7    28    30   ar
     8    30    22    1
     9    22    20    1
    10    20     1    1
    11     1     2   ar
    12     2     3   ar
    13     3    12    1
    14    12    13    2
    15    12    14   am
    16    14    16    1
    17    16    17    1
    18    17    18    1
    19     3     4   ar
    20     4     5   ar
    21     5     6   ar
    22     6     7    1
    23     6     8   ar
    24     8     9    1
    25     8    10   ar
    26    10    11   ar
    27    30    24   ar
    28    11     1   ar
    29    11     5   ar
    30    20    21    1
    31    14    15    1
    32    18    19    1
