@<TRIPOS>MOLECULE
*****
 40 44 0 0 0
SMALL
GASTEIGER

@<TRIPOS>ATOM
      1 C          62.7994   84.8239   17.1824 C.3     1  UNL1        0.1332
      2 N          63.4415   85.6815   16.1325 N.ar    1  UNL1       -0.2975
      3 C          64.1681   85.1901   14.9158 C.ar    1  UNL1        0.2018
      4 N          64.6453   86.3860   14.1464 N.ar    1  UNL1       -0.2134
      5 C          64.2137   87.6166   14.8876 C.ar    1  UNL1        0.1030
      6 C          64.4020   89.0773   14.6034 C.ar    1  UNL1        0.0581
      7 C          63.8462   90.1026   15.5467 C.ar    1  UNL1        0.1469
      8 C          63.1022   89.6672   16.7742 C.ar    1  UNL1        0.0391
      9 C          62.9139   88.2065   17.0585 C.ar    1  UNL1        0.0219
     10 C          63.4696   87.1812   16.1151 C.ar    1  UNL1        0.0801
     11 N          64.3802   83.7548   14.5352 N.pl3   1  UNL1       -0.2821
     12 H          64.7828   83.1289   15.1799 H       1  UNL1        0.1551
     13 C          63.9790   83.2729   13.1726 C.ar    1  UNL1        0.0782
     14 C          63.7573   84.2585   12.0638 C.ar    1  UNL1        0.0208
     15 C          63.3560   83.7767   10.7011 C.ar    1  UNL1        0.0728
     16 C          63.1765   82.3093   10.4473 C.ar    1  UNL1        0.0062
     17 C          63.3981   81.3237   11.5560 C.ar    1  UNL1        0.0309
     18 C          63.7994   81.8055   12.9188 C.ar    1  UNL1        0.1535
     19 F          64.0211   80.8199   14.0275 F       1  UNL1       -0.2029
     20 C          63.1343   84.7623    9.5923 C.3     1  UNL1        0.4186
     21 F          62.9126   85.7479    8.4835 F       1  UNL1       -0.1659
     22 F          63.5404   83.7244    8.5884 F       1  UNL1       -0.1659
     23 F          62.7282   85.8003   10.5961 F       1  UNL1       -0.1659
     24 O          64.0345   91.5634   15.2625 O.3     1  UNL1       -0.4533
     25 C          65.3847   92.0822   14.8650 C.ar    1  UNL1        0.1485
     26 C          66.4688   92.2167   15.8929 C.ar    1  UNL1        0.0582
     27 C          67.8190   92.7355   15.4954 C.ar    1  UNL1        0.1021
     28 N          68.0850   93.1197   14.0700 N.ar    1  UNL1       -0.2406
     29 C          67.0008   92.9851   13.0422 C.ar    1  UNL1        0.1181
     30 C          65.6507   92.4663   13.4397 C.ar    1  UNL1        0.0597
     31 C          67.2668   93.3693   11.6168 C.ar    1  UNL1        0.1585
     32 N          67.8967   92.4973   10.5714 N.ar    1  UNL1       -0.2240
     33 C          67.9688   93.2820    9.2951 C.ar    1  UNL1        0.1214
     34 C          67.3833   94.6391    9.5516 C.ar    1  UNL1        0.1493
     35 N          66.9494   94.6930   10.9866 N.ar    1  UNL1       -0.3329
     36 H          66.5301   95.4621   11.4358 H       1  UNL1        0.1674
     37 C          67.2544   95.7475    8.5493 C.3     1  UNL1        0.4344
     38 F          67.1254   96.8559    7.5469 F       1  UNL1       -0.1644
     39 F          67.6383   96.7444    9.6023 F       1  UNL1       -0.1644
     40 F          66.8705   94.7506    7.4963 F       1  UNL1       -0.1644
@<TRIPOS>BOND
     1     1     2    1
     2     2     3   ar
     3     3    11    1
     4    11    13    1
     5    13    14   ar
     6    14    15   ar
     7    15    20    1
     8    20    21    1
     9    20    22    1
    10    20    23    1
    11    15    16   ar
    12    16    17   ar
    13    17    18   ar
    14    18    19    1
    15     3     4   ar
    16     4     5   ar
    17     5     6   ar
    18     6     7   ar
    19     7    24    1
    20    24    25    1
    21    25    26   ar
    22    26    27   ar
    23    27    28   ar
    24    28    29   ar
    25    29    31    1
    26    31    32   ar
    27    32    33   ar
    28    33    34   ar
    29    34    37    1
    30    37    38    1
    31    37    39    1
    32    37    40    1
    33    34    35   ar
    34    29    30   ar
    35     7     8   ar
    36     8     9   ar
    37     9    10   ar
    38    10     2   ar
    39    18    13   ar
    40    10     5   ar
    41    30    25   ar
    42    35    31   ar
    43    11    12    1
    44    35    36    1
@<TRIPOS>MOLECULE
*****
 40 44 0 0 0
SMALL
GASTEIGER

@<TRIPOS>ATOM
      1 C          62.9525   84.8683   11.6157 C.3     1  UNL1        0.1332
      2 N          63.5864   85.5479   12.7932 N.ar    1  UNL1       -0.2975
      3 C          64.3994   84.8816   13.8633 C.ar    1  UNL1        0.2018
      4 N          64.8341   85.9351   14.8386 N.ar    1  UNL1       -0.2134
      5 C          64.2897   87.2524   14.3714 C.ar    1  UNL1        0.1030
      6 C          64.3965   88.6389   14.9337 C.ar    1  UNL1        0.0581
      7 C          63.7323   89.7861   14.2318 C.ar    1  UNL1        0.1469
      8 C          62.9612   89.5468   12.9676 C.ar    1  UNL1        0.0391
      9 C          62.8544   88.1603   12.4053 C.ar    1  UNL1        0.0219
     10 C          63.5186   87.0131   13.1072 C.ar    1  UNL1        0.0801
     11 N          64.7212   83.4188   13.9439 N.pl3   1  UNL1       -0.2821
     12 H          65.6217   83.1270   14.2147 H       1  UNL1        0.1551
     13 C          63.6712   82.4004   13.6117 C.ar    1  UNL1        0.0782
     14 C          63.8020   81.5649   12.3728 C.ar    1  UNL1        0.0208
     15 C          62.7519   80.5466   12.0407 C.ar    1  UNL1        0.0728
     16 C          61.5711   80.3637   12.9475 C.ar    1  UNL1        0.0062
     17 C          61.4403   81.1991   14.1864 C.ar    1  UNL1        0.0309
     18 C          62.4904   82.2175   14.5185 C.ar    1  UNL1        0.1535
     19 F          62.3596   83.0530   15.7574 F       1  UNL1       -0.2029
     20 C          62.8827   79.7110   10.8018 C.3     1  UNL1        0.4186
     21 F          63.0134   78.8755    9.5629 F       1  UNL1       -0.1659
     22 F          63.2257   80.9382   10.0103 F       1  UNL1       -0.1659
     23 F          62.5396   78.4839   11.5932 F       1  UNL1       -0.1659
     24 O          63.8391   91.1726   14.7941 O.3     1  UNL1       -0.4533
     25 C          65.0860   91.9770   14.5744 C.ar    1  UNL1        0.1485
     26 C          65.9033   92.4293   15.7481 C.ar    1  UNL1        0.0582
     27 C          67.1502   93.2337   15.5283 C.ar    1  UNL1        0.1021
     28 N          67.5796   93.5859   14.1349 N.ar    1  UNL1       -0.2406
     29 C          66.7623   93.1336   12.9613 C.ar    1  UNL1        0.1181
     30 C          65.5155   92.3292   13.1810 C.ar    1  UNL1        0.0597
     31 C          67.1918   93.4858   11.5679 C.ar    1  UNL1        0.1585
     32 N          67.9758   92.6076   10.6384 N.ar    1  UNL1       -0.2240
     33 C          68.1812   93.3570    9.3554 C.ar    1  UNL1        0.1214
     34 C          67.5241   94.6986    9.4919 C.ar    1  UNL1        0.1493
     35 N          66.9126   94.7782   10.8594 N.ar    1  UNL1       -0.3329
     36 H          66.4153   95.5441   11.2273 H       1  UNL1        0.1674
     37 C          67.4853   95.7720    8.4449 C.3     1  UNL1        0.4344
     38 F          67.4465   96.8454    7.3979 F       1  UNL1       -0.1644
     39 F          67.6699   96.8148    9.5072 F       1  UNL1       -0.1644
     40 F          67.3007   94.7292    7.3826 F       1  UNL1       -0.1644
@<TRIPOS>BOND
     1     1     2    1
     2     2     3   ar
     3     3    11    1
     4    11    13    1
     5    13    14   ar
     6    14    15   ar
     7    15    20    1
     8    20    21    1
     9    20    22    1
    10    20    23    1
    11    15    16   ar
    12    16    17   ar
    13    17    18   ar
    14    18    19    1
    15     3     4   ar
    16     4     5   ar
    17     5     6   ar
    18     6     7   ar
    19     7    24    1
    20    24    25    1
    21    25    26   ar
    22    26    27   ar
    23    27    28   ar
    24    28    29   ar
    25    29    31    1
    26    31    32   ar
    27    32    33   ar
    28    33    34   ar
    29    34    37    1
    30    37    38    1
    31    37    39    1
    32    37    40    1
    33    34    35   ar
    34    29    30   ar
    35     7     8   ar
    36     8     9   ar
    37     9    10   ar
    38    10     2   ar
    39    18    13   ar
    40    10     5   ar
    41    30    25   ar
    42    35    31   ar
    43    11    12    1
    44    35    36    1
@<TRIPOS>MOLECULE
*****
 40 44 0 0 0
SMALL
GASTEIGER

@<TRIPOS>ATOM
      1 C          62.9694   84.4971   16.9574 C.3     1  UNL1        0.1332
      2 N          63.6474   85.4495   16.0176 N.ar    1  UNL1       -0.2975
      3 C          64.5676   85.0743   14.8940 C.ar    1  UNL1        0.2018
      4 N          65.0132   86.3373   14.2185 N.ar    1  UNL1       -0.2134
      5 C          64.3685   87.4930   14.9246 C.ar    1  UNL1        0.1030
      6 C          64.4410   88.9741   14.6987 C.ar    1  UNL1        0.0581
      7 C          63.6694   89.9065   15.5848 C.ar    1  UNL1        0.1469
      8 C          62.8253   89.3578   16.6968 C.ar    1  UNL1        0.0391
      9 C          62.7528   87.8768   16.9226 C.ar    1  UNL1        0.0219
     10 C          63.5244   86.9443   16.0366 C.ar    1  UNL1        0.0801
     11 N          64.9712   83.6808   14.5128 N.pl3   1  UNL1       -0.2821
     12 H          65.8054   83.2958   14.8666 H       1  UNL1        0.1551
     13 C          64.1039   82.8739   13.5928 C.ar    1  UNL1        0.0782
     14 C          63.0258   81.9961   14.1561 C.ar    1  UNL1        0.0208
     15 C          62.1584   81.1893   13.2360 C.ar    1  UNL1        0.0728
     16 C          62.3691   81.2601   11.7526 C.ar    1  UNL1        0.0062
     17 C          63.4471   82.1378   11.1892 C.ar    1  UNL1        0.0309
     18 C          64.3146   82.9448   12.1093 C.ar    1  UNL1        0.1535
     19 F          65.3926   83.8225   11.5460 F       1  UNL1       -0.2029
     20 C          61.0803   80.3115   13.7994 C.3     1  UNL1        0.4186
     21 F          60.0023   79.4337   14.3627 F       1  UNL1       -0.1659
     22 F          60.3889   81.5194   14.3585 F       1  UNL1       -0.1659
     23 F          61.7717   79.1035   13.2402 F       1  UNL1       -0.1659
     24 O          63.7419   91.3877   15.3589 O.3     1  UNL1       -0.4533
     25 C          65.0519   92.0300   15.0108 C.ar    1  UNL1        0.1485
     26 C          66.0420   92.3480   16.0919 C.ar    1  UNL1        0.0582
     27 C          67.3521   92.9903   15.7438 C.ar    1  UNL1        0.1021
     28 N          67.6720   93.3147   14.3147 N.ar    1  UNL1       -0.2406
     29 C          66.6819   92.9968   13.2337 C.ar    1  UNL1        0.1181
     30 C          65.3719   92.3545   13.5818 C.ar    1  UNL1        0.0597
     31 C          67.0019   93.3213   11.8045 C.ar    1  UNL1        0.1585
     32 N          67.4655   92.3477   10.7619 N.ar    1  UNL1       -0.2240
     33 C          67.6645   93.1010    9.4801 C.ar    1  UNL1        0.1214
     34 C          67.3238   94.5402    9.7305 C.ar    1  UNL1        0.1493
     35 N          66.9143   94.6763   11.1672 N.ar    1  UNL1       -0.3329
     36 H          66.6368   95.5089   11.6135 H       1  UNL1        0.1674
     37 C          67.3824   95.6486    8.7216 C.3     1  UNL1        0.4344
     38 F          67.4410   96.7570    7.7127 F       1  UNL1       -0.1644
     39 F          67.6485   94.6472    7.6370 F       1  UNL1       -0.1644
     40 F          67.1163   96.6500    9.8062 F       1  UNL1       -0.1644
@<TRIPOS>BOND
     1     1     2    1
     2     2     3   ar
     3     3    11    1
     4    11    13    1
     5    13    14   ar
     6    14    15   ar
     7    15    20    1
     8    20    21    1
     9    20    22    1
    10    20    23    1
    11    15    16   ar
    12    16    17   ar
    13    17    18   ar
    14    18    19    1
    15     3     4   ar
    16     4     5   ar
    17     5     6   ar
    18     6     7   ar
    19     7    24    1
    20    24    25    1
    21    25    26   ar
    22    26    27   ar
    23    27    28   ar
    24    28    29   ar
    25    29    31    1
    26    31    32   ar
    27    32    33   ar
    28    33    34   ar
    29    34    37    1
    30    37    38    1
    31    37    39    1
    32    37    40    1
    33    34    35   ar
    34    29    30   ar
    35     7     8   ar
    36     8     9   ar
    37     9    10   ar
    38    10     2   ar
    39    18    13   ar
    40    10     5   ar
    41    30    25   ar
    42    35    31   ar
    43    11    12    1
    44    35    36    1
@<TRIPOS>MOLECULE
*****
 40 44 0 0 0
SMALL
GASTEIGER

@<TRIPOS>ATOM
      1 C          60.8573   86.5140    7.9266 C.3     1  UNL1        0.1332
      2 N          60.6801   87.8645    8.5550 N.ar    1  UNL1       -0.2975
      3 C          59.8139   88.9727    8.0339 C.ar    1  UNL1        0.2018
      4 N          59.9365   90.1369    8.9717 N.ar    1  UNL1       -0.2134
      5 C          60.8785   89.7482   10.0725 C.ar    1  UNL1        0.1030
      6 C          61.3771   90.4917   11.2760 C.ar    1  UNL1        0.0581
      7 C          62.3353   89.8308   12.2220 C.ar    1  UNL1        0.1469
      8 C          62.7949   88.4264   11.9644 C.ar    1  UNL1        0.0391
      9 C          62.2963   87.6829   10.7609 C.ar    1  UNL1        0.0219
     10 C          61.3381   88.3438    9.8149 C.ar    1  UNL1        0.0801
     11 N          58.9727   88.9250    6.7928 N.pl3   1  UNL1       -0.2821
     12 H          58.4046   88.1413    6.6130 H       1  UNL1        0.1551
     13 C          58.9971   90.0713    5.8258 C.ar    1  UNL1        0.0782
     14 C          60.2949   90.5090    5.2140 C.ar    1  UNL1        0.0208
     15 C          60.3193   91.6553    4.2469 C.ar    1  UNL1        0.0728
     16 C          59.0460   92.3641    3.8916 C.ar    1  UNL1        0.0062
     17 C          57.7482   91.9265    4.5033 C.ar    1  UNL1        0.0309
     18 C          57.7238   90.7801    5.4704 C.ar    1  UNL1        0.1535
     19 F          56.4260   90.3424    6.0821 F       1  UNL1       -0.2029
     20 C          61.6172   92.0930    3.6351 C.3     1  UNL1        0.4186
     21 F          62.9149   92.5307    3.0234 F       1  UNL1       -0.1659
     22 F          62.2831   90.8572    4.1635 F       1  UNL1       -0.1659
     23 F          60.9513   93.3289    3.1068 F       1  UNL1       -0.1659
     24 O          62.8340   90.5743   13.4256 O.3     1  UNL1       -0.4533
     25 C          64.2505   91.0659   13.4697 C.ar    1  UNL1        0.1485
     26 C          65.0651   90.8953   14.7177 C.ar    1  UNL1        0.0582
     27 C          66.4815   91.3870   14.7618 C.ar    1  UNL1        0.1021
     28 N          67.0834   92.0491   13.5579 N.ar    1  UNL1       -0.2406
     29 C          66.2689   92.2197   12.3100 C.ar    1  UNL1        0.1181
     30 C          64.8524   91.7281   12.2659 C.ar    1  UNL1        0.0597
     31 C          66.8708   92.8819   11.1061 C.ar    1  UNL1        0.1585
     32 N          68.0251   92.3644   10.3000 N.ar    1  UNL1       -0.2240
     33 C          68.2917   93.3405    9.1927 C.ar    1  UNL1        0.1214
     34 C          67.3022   94.4613    9.3144 C.ar    1  UNL1        0.1493
     35 N          66.4240   94.1778   10.4971 N.ar    1  UNL1       -0.3329
     36 H          65.6842   94.7430   10.8173 H       1  UNL1        0.1674
     37 C          67.2075   95.6557    8.4121 C.3     1  UNL1        0.4344
     38 F          67.1128   96.8502    7.5097 F       1  UNL1       -0.1644
     39 F          67.6030   96.5477    9.5513 F       1  UNL1       -0.1644
     40 F          66.8120   94.7637    7.2728 F       1  UNL1       -0.1644
@<TRIPOS>BOND
     1     1     2    1
     2     2     3   ar
     3     3    11    1
     4    11    13    1
     5    13    14   ar
     6    14    15   ar
     7    15    20    1
     8    20    21    1
     9    20    22    1
    10    20    23    1
    11    15    16   ar
    12    16    17   ar
    13    17    18   ar
    14    18    19    1
    15     3     4   ar
    16     4     5   ar
    17     5     6   ar
    18     6     7   ar
    19     7    24    1
    20    24    25    1
    21    25    26   ar
    22    26    27   ar
    23    27    28   ar
    24    28    29   ar
    25    29    31    1
    26    31    32   ar
    27    32    33   ar
    28    33    34   ar
    29    34    37    1
    30    37    38    1
    31    37    39    1
    32    37    40    1
    33    34    35   ar
    34    29    30   ar
    35     7     8   ar
    36     8     9   ar
    37     9    10   ar
    38    10     2   ar
    39    18    13   ar
    40    10     5   ar
    41    30    25   ar
    42    35    31   ar
    43    11    12    1
    44    35    36    1
@<TRIPOS>MOLECULE
*****
 40 44 0 0 0
SMALL
GASTEIGER

@<TRIPOS>ATOM
      1 C          62.9351   84.2909   15.2803 C.3     1  UNL1        0.1332
      2 N          63.1663   85.5590   14.5131 N.ar    1  UNL1       -0.2975
      3 C          63.2841   85.6787   13.0226 C.ar    1  UNL1        0.2018
      4 N          63.5109   87.1237   12.6901 N.ar    1  UNL1       -0.2134
      5 C          63.5333   87.8970   13.9752 C.ar    1  UNL1        0.1030
      6 C          63.7201   89.3568   14.2649 C.ar    1  UNL1        0.0581
      7 C          63.6940   89.8496   15.6814 C.ar    1  UNL1        0.1469
      8 C          63.4810   88.8826   16.8081 C.ar    1  UNL1        0.0391
      9 C          63.2942   87.4228   16.5184 C.ar    1  UNL1        0.0219
     10 C          63.3203   86.9300   15.1019 C.ar    1  UNL1        0.0801
     11 N          63.1913   84.5513   12.0374 N.pl3   1  UNL1       -0.2821
     12 H          63.3889   83.6302   12.3234 H       1  UNL1        0.1551
     13 C          62.7975   84.8273   10.6167 C.ar    1  UNL1        0.0782
     14 C          61.6597   85.7590   10.3212 C.ar    1  UNL1        0.0208
     15 C          61.2659   86.0351    8.9004 C.ar    1  UNL1        0.0728
     16 C          62.0099   85.3794    7.7750 C.ar    1  UNL1        0.0062
     17 C          63.1477   84.4478    8.0704 C.ar    1  UNL1        0.0309
     18 C          63.5416   84.1717    9.4912 C.ar    1  UNL1        0.1535
     19 F          64.6794   83.2400    9.7866 F       1  UNL1       -0.2029
     20 C          60.1280   86.9668    8.6050 C.3     1  UNL1        0.4186
     21 F          58.9902   87.8985    8.3096 F       1  UNL1       -0.1659
     22 F          59.6060   86.0043    7.5797 F       1  UNL1       -0.1659
     23 F          60.6499   87.9292    9.6302 F       1  UNL1       -0.1659
     24 O          63.8808   91.3095   15.9712 O.3     1  UNL1       -0.4533
     25 C          65.1072   92.0205   15.4810 C.ar    1  UNL1        0.1485
     26 C          66.1901   92.4008   16.4469 C.ar    1  UNL1        0.0582
     27 C          67.4165   93.1118   15.9567 C.ar    1  UNL1        0.1021
     28 N          67.5601   93.4424   14.5006 N.ar    1  UNL1       -0.2406
     29 C          66.4773   93.0621   13.5348 C.ar    1  UNL1        0.1181
     30 C          65.2508   92.3511   14.0250 C.ar    1  UNL1        0.0597
     31 C          66.6209   93.3928   12.0787 C.ar    1  UNL1        0.1585
     32 N          66.5325   92.4196   10.9407 N.ar    1  UNL1       -0.2240
     33 C          66.7350   93.1801    9.6637 C.ar    1  UNL1        0.1214
     34 C          66.9486   94.6233   10.0125 C.ar    1  UNL1        0.1493
     35 N          66.8781   94.7547   11.5052 N.ar    1  UNL1       -0.3329
     36 H          66.9823   95.5885   12.0182 H       1  UNL1        0.1674
     37 C          67.1903   95.7391    9.0396 C.3     1  UNL1        0.4344
     38 F          67.4320   96.8548    8.0667 F       1  UNL1       -0.1644
     39 F          67.0642   94.7724    7.8996 F       1  UNL1       -0.1644
     40 F          67.3165   96.7058   10.1796 F       1  UNL1       -0.1644
@<TRIPOS>BOND
     1     1     2    1
     2     2     3   ar
     3     3    11    1
     4    11    13    1
     5    13    14   ar
     6    14    15   ar
     7    15    20    1
     8    20    21    1
     9    20    22    1
    10    20    23    1
    11    15    16   ar
    12    16    17   ar
    13    17    18   ar
    14    18    19    1
    15     3     4   ar
    16     4     5   ar
    17     5     6   ar
    18     6     7   ar
    19     7    24    1
    20    24    25    1
    21    25    26   ar
    22    26    27   ar
    23    27    28   ar
    24    28    29   ar
    25    29    31    1
    26    31    32   ar
    27    32    33   ar
    28    33    34   ar
    29    34    37    1
    30    37    38    1
    31    37    39    1
    32    37    40    1
    33    34    35   ar
    34    29    30   ar
    35     7     8   ar
    36     8     9   ar
    37     9    10   ar
    38    10     2   ar
    39    18    13   ar
    40    10     5   ar
    41    30    25   ar
    42    35    31   ar
    43    11    12    1
    44    35    36    1
@<TRIPOS>MOLECULE
*****
 40 44 0 0 0
SMALL
GASTEIGER

@<TRIPOS>ATOM
      1 C          59.0227   86.5396    7.1273 C.3     1  UNL1        0.1332
      2 N          59.6828   87.6914    7.8256 N.ar    1  UNL1       -0.2975
      3 C          59.5526   89.1390    7.4550 C.ar    1  UNL1        0.2018
      4 N          60.3784   89.9399    8.4176 N.ar    1  UNL1       -0.2134
      5 C          61.0190   88.9873    9.3831 C.ar    1  UNL1        0.1030
      6 C          61.9382   89.2057   10.5481 C.ar    1  UNL1        0.0581
      7 C          62.4275   88.0344   11.3473 C.ar    1  UNL1        0.1469
      8 C          61.9976   86.6447   10.9814 C.ar    1  UNL1        0.0391
      9 C          61.0784   86.4263    9.8164 C.ar    1  UNL1        0.0219
     10 C          60.5891   87.5976    9.0172 C.ar    1  UNL1        0.0801
     11 N          58.7394   89.6891    6.3210 N.pl3   1  UNL1       -0.2821
     12 H          57.7977   89.4222    6.2158 H       1  UNL1        0.1551
     13 C          59.3611   90.6459    5.3474 C.ar    1  UNL1        0.0782
     14 C          60.7743   90.4378    4.8896 C.ar    1  UNL1        0.0208
     15 C          61.3959   91.3946    3.9160 C.ar    1  UNL1        0.0728
     16 C          60.6044   92.5596    3.4000 C.ar    1  UNL1        0.0062
     17 C          59.1912   92.7678    3.8577 C.ar    1  UNL1        0.0309
     18 C          58.5695   91.8110    4.8314 C.ar    1  UNL1        0.1535
     19 F          57.1563   92.0192    5.2891 F       1  UNL1       -0.2029
     20 C          62.8092   91.1864    3.4582 C.3     1  UNL1        0.4186
     21 F          64.2224   90.9783    3.0005 F       1  UNL1       -0.1659
     22 F          62.6547   89.7073    3.6536 F       1  UNL1       -0.1659
     23 F          62.9637   92.6655    3.2628 F       1  UNL1       -0.1659
     24 O          63.3468   88.2529   12.5123 O.3     1  UNL1       -0.4533
     25 C          63.6813   87.1126   13.4277 C.ar    1  UNL1        0.1485
     26 C          64.2906   87.3835   14.7714 C.ar    1  UNL1        0.0582
     27 C          64.6252   86.2432   15.6868 C.ar    1  UNL1        0.1021
     28 N          64.3504   84.8321   15.2585 N.ar    1  UNL1       -0.2406
     29 C          63.7411   84.5613   13.9149 C.ar    1  UNL1        0.1181
     30 C          63.4066   85.7016   12.9995 C.ar    1  UNL1        0.0597
     31 C          63.4663   83.1502   13.4866 C.ar    1  UNL1        0.1585
     32 N          63.2048   81.9874   14.3973 N.ar    1  UNL1       -0.2240
     33 C          62.9817   80.7728   13.5459 C.ar    1  UNL1        0.1214
     34 C          63.1053   81.1849   12.1089 C.ar    1  UNL1        0.1493
     35 N          63.4049   82.6543   12.0722 N.ar    1  UNL1       -0.3329
     36 H          63.5378   83.1978   11.2622 H       1  UNL1        0.1674
     37 C          62.9557   80.2856   10.9178 C.3     1  UNL1        0.4344
     38 F          62.8061   79.3863    9.7266 F       1  UNL1       -0.1644
     39 F          62.5367   79.1619   11.8188 F       1  UNL1       -0.1644
     40 F          63.3746   81.4093   10.0168 F       1  UNL1       -0.1644
@<TRIPOS>BOND
     1     1     2    1
     2     2     3   ar
     3     3    11    1
     4    11    13    1
     5    13    14   ar
     6    14    15   ar
     7    15    20    1
     8    20    21    1
     9    20    22    1
    10    20    23    1
    11    15    16   ar
    12    16    17   ar
    13    17    18   ar
    14    18    19    1
    15     3     4   ar
    16     4     5   ar
    17     5     6   ar
    18     6     7   ar
    19     7    24    1
    20    24    25    1
    21    25    26   ar
    22    26    27   ar
    23    27    28   ar
    24    28    29   ar
    25    29    31    1
    26    31    32   ar
    27    32    33   ar
    28    33    34   ar
    29    34    37    1
    30    37    38    1
    31    37    39    1
    32    37    40    1
    33    34    35   ar
    34    29    30   ar
    35     7     8   ar
    36     8     9   ar
    37     9    10   ar
    38    10     2   ar
    39    18    13   ar
    40    10     5   ar
    41    30    25   ar
    42    35    31   ar
    43    11    12    1
    44    35    36    1
@<TRIPOS>MOLECULE
*****
 40 44 0 0 0
SMALL
GASTEIGER

@<TRIPOS>ATOM
      1 C          63.3773   84.3540   14.2671 C.3     1  UNL1        0.1332
      2 N          63.3507   85.6974   13.6003 N.ar    1  UNL1       -0.2975
      3 C          63.0997   85.9540   12.1439 C.ar    1  UNL1        0.2018
      4 N          63.1643   87.4352   11.9164 N.ar    1  UNL1       -0.2134
      5 C          63.4551   88.0941   13.2322 C.ar    1  UNL1        0.1030
      6 C          63.6300   89.5332   13.6171 C.ar    1  UNL1        0.0581
      7 C          63.9200   89.8983   15.0428 C.ar    1  UNL1        0.1469
      8 C          64.0352   88.8243   16.0835 C.ar    1  UNL1        0.0391
      9 C          63.8603   87.3851   15.6986 C.ar    1  UNL1        0.0219
     10 C          63.5703   87.0200   14.2729 C.ar    1  UNL1        0.0801
     11 N          62.8313   84.9123   11.0985 N.pl3   1  UNL1       -0.2821
     12 H          63.1755   83.9974   11.2155 H       1  UNL1        0.1551
     13 C          62.0385   85.2645    9.8749 C.ar    1  UNL1        0.0782
     14 C          62.4090   84.6757    8.5459 C.ar    1  UNL1        0.0208
     15 C          61.6162   85.0279    7.3223 C.ar    1  UNL1        0.0728
     16 C          60.4529   85.9690    7.4275 C.ar    1  UNL1        0.0062
     17 C          60.0824   86.5578    8.7564 C.ar    1  UNL1        0.0309
     18 C          60.8752   86.2056    9.9801 C.ar    1  UNL1        0.1535
     19 F          60.5047   86.7944   11.3090 F       1  UNL1       -0.2029
     20 C          61.9868   84.4391    5.9933 C.3     1  UNL1        0.4186
     21 F          62.3573   83.8503    4.6644 F       1  UNL1       -0.1659
     22 F          60.5626   84.0179    5.7828 F       1  UNL1       -0.1659
     23 F          63.4109   84.8602    6.2038 F       1  UNL1       -0.1659
     24 O          64.0948   91.3376   15.4278 O.3     1  UNL1       -0.4533
     25 C          65.3513   92.0666   15.0539 C.ar    1  UNL1        0.1485
     26 C          66.3329   92.4630   16.1166 C.ar    1  UNL1        0.0582
     27 C          67.5894   93.1921   15.7427 C.ar    1  UNL1        0.1021
     28 N          67.8642   93.5247   14.3060 N.ar    1  UNL1       -0.2406
     29 C          66.8825   93.1283   13.2434 C.ar    1  UNL1        0.1181
     30 C          65.6261   92.3993   13.6173 C.ar    1  UNL1        0.0597
     31 C          67.1573   93.4610   11.8067 C.ar    1  UNL1        0.1585
     32 N          67.7151   92.5248   10.7760 N.ar    1  UNL1       -0.2240
     33 C          67.8250   93.2735    9.4809 C.ar    1  UNL1        0.1214
     34 C          67.3353   94.6725    9.7112 C.ar    1  UNL1        0.1493
     35 N          66.9226   94.7884   11.1487 N.ar    1  UNL1       -0.3329
     36 H          66.5612   95.5941   11.5839 H       1  UNL1        0.1674
     37 C          67.2697   95.7639    8.6843 C.3     1  UNL1        0.4344
     38 F          67.2042   96.8554    7.6575 F       1  UNL1       -0.1644
     39 F          67.4441   96.7903    9.7641 F       1  UNL1       -0.1644
     40 F          67.0954   94.7375    7.6045 F       1  UNL1       -0.1644
@<TRIPOS>BOND
     1     1     2    1
     2     2     3   ar
     3     3    11    1
     4    11    13    1
     5    13    14   ar
     6    14    15   ar
     7    15    20    1
     8    20    21    1
     9    20    22    1
    10    20    23    1
    11    15    16   ar
    12    16    17   ar
    13    17    18   ar
    14    18    19    1
    15     3     4   ar
    16     4     5   ar
    17     5     6   ar
    18     6     7   ar
    19     7    24    1
    20    24    25    1
    21    25    26   ar
    22    26    27   ar
    23    27    28   ar
    24    28    29   ar
    25    29    31    1
    26    31    32   ar
    27    32    33   ar
    28    33    34   ar
    29    34    37    1
    30    37    38    1
    31    37    39    1
    32    37    40    1
    33    34    35   ar
    34    29    30   ar
    35     7     8   ar
    36     8     9   ar
    37     9    10   ar
    38    10     2   ar
    39    18    13   ar
    40    10     5   ar
    41    30    25   ar
    42    35    31   ar
    43    11    12    1
    44    35    36    1
@<TRIPOS>MOLECULE
*****
 40 44 0 0 0
SMALL
GASTEIGER

@<TRIPOS>ATOM
      1 C          63.4303   91.8828    9.7035 C.3     1  UNL1        0.1332
      2 N          62.7963   90.9539   10.6961 N.ar    1  UNL1       -0.2975
      3 C          61.6559   90.0182   10.4244 C.ar    1  UNL1        0.2018
      4 N          61.3462   89.2837   11.6951 N.ar    1  UNL1       -0.2134
      5 C          62.2952   89.7655   12.7521 C.ar    1  UNL1        0.1030
      6 C          62.4591   89.3976   14.1970 C.ar    1  UNL1        0.0581
      7 C          63.5192   90.0620   15.0245 C.ar    1  UNL1        0.1469
      8 C          64.4154   91.0943   14.4070 C.ar    1  UNL1        0.0391
      9 C          64.2515   91.4622   12.9622 C.ar    1  UNL1        0.0219
     10 C          63.1914   90.7978   12.1347 C.ar    1  UNL1        0.0801
     11 N          60.9492   89.8470    9.1124 N.pl3   1  UNL1       -0.2821
     12 H          60.6229   90.6361    8.6224 H       1  UNL1        0.1551
     13 C          60.7397   88.4735    8.5470 C.ar    1  UNL1        0.0782
     14 C          61.7387   87.3888    8.8220 C.ar    1  UNL1        0.0208
     15 C          61.5292   86.0154    8.2565 C.ar    1  UNL1        0.0728
     16 C          60.3207   85.7266    7.4162 C.ar    1  UNL1        0.0062
     17 C          59.3218   86.8112    7.1412 C.ar    1  UNL1        0.0309
     18 C          59.5312   88.1847    7.7066 C.ar    1  UNL1        0.1535
     19 F          58.5323   89.2694    7.4317 F       1  UNL1       -0.2029
     20 C          62.5281   84.9307    8.5315 C.3     1  UNL1        0.4186
     21 F          63.5271   83.8460    8.8065 F       1  UNL1       -0.1659
     22 F          62.6964   84.7119    7.0571 F       1  UNL1       -0.1659
     23 F          62.3599   85.1495   10.0058 F       1  UNL1       -0.1659
     24 O          63.6831   89.6941   16.4694 O.3     1  UNL1       -0.4533
     25 C          63.3755   88.2994   16.9278 C.ar    1  UNL1        0.1485
     26 C          62.8867   88.0600   18.3257 C.ar    1  UNL1        0.0582
     27 C          62.5791   86.6653   18.7840 C.ar    1  UNL1        0.1021
     28 N          62.7603   85.5100   17.8446 N.ar    1  UNL1       -0.2406
     29 C          63.2490   85.7494   16.4468 C.ar    1  UNL1        0.1181
     30 C          63.5566   87.1441   15.9884 C.ar    1  UNL1        0.0597
     31 C          63.4301   84.5941   15.5073 C.ar    1  UNL1        0.1585
     32 N          64.5382   84.4349   14.5090 N.ar    1  UNL1       -0.2240
     33 C          64.3278   83.1376   13.7860 C.ar    1  UNL1        0.1214
     34 C          63.0897   82.4950   14.3375 C.ar    1  UNL1        0.1493
     35 N          62.5348   83.3952   15.4014 N.ar    1  UNL1       -0.3329
     36 H          61.7252   83.2285   15.9362 H       1  UNL1        0.1674
     37 C          62.5084   81.1827   13.9017 C.3     1  UNL1        0.4344
     38 F          61.9272   79.8703   13.4658 F       1  UNL1       -0.1644
     39 F          61.2057   81.5438   14.5516 F       1  UNL1       -0.1644
     40 F          63.8111   80.8215   13.2517 F       1  UNL1       -0.1644
@<TRIPOS>BOND
     1     1     2    1
     2     2     3   ar
     3     3    11    1
     4    11    13    1
     5    13    14   ar
     6    14    15   ar
     7    15    20    1
     8    20    21    1
     9    20    22    1
    10    20    23    1
    11    15    16   ar
    12    16    17   ar
    13    17    18   ar
    14    18    19    1
    15     3     4   ar
    16     4     5   ar
    17     5     6   ar
    18     6     7   ar
    19     7    24    1
    20    24    25    1
    21    25    26   ar
    22    26    27   ar
    23    27    28   ar
    24    28    29   ar
    25    29    31    1
    26    31    32   ar
    27    32    33   ar
    28    33    34   ar
    29    34    37    1
    30    37    38    1
    31    37    39    1
    32    37    40    1
    33    34    35   ar
    34    29    30   ar
    35     7     8   ar
    36     8     9   ar
    37     9    10   ar
    38    10     2   ar
    39    18    13   ar
    40    10     5   ar
    41    30    25   ar
    42    35    31   ar
    43    11    12    1
    44    35    36    1
