@<TRIPOS>MOLECULE
*****
 29 32 0 0 0
SMALL
GASTEIGER

@<TRIPOS>ATOM
      1 C          62.3905   80.3274   12.6991 C.3     1  UNL1        0.0319
      2 C          62.6632   81.7319   13.1496 C.ar    1  UNL1       -0.0115
      3 C          62.5588   82.0870   14.6032 C.ar    1  UNL1       -0.0064
      4 C          62.8314   83.4915   15.0537 C.ar    1  UNL1       -0.0070
      5 C          63.2085   84.5410   14.0505 C.ar    1  UNL1        0.0522
      6 C          63.3129   84.1860   12.5969 C.ar    1  UNL1        0.0257
      7 C          63.0402   82.7814   12.1464 C.ar    1  UNL1        0.0549
      8 CL         63.1447   82.4264   10.6928 Cl      1  UNL1       -0.0825
      9 N          63.4174   85.8315   14.7861 N.am    1  UNL1       -0.2430
     10 C          63.8061   87.1436   14.1717 C.2     1  UNL1        0.3115
     11 O          64.0213   87.2437   12.6906 O.2     1  UNL1       -0.2519
     12 N          63.9795   88.3554   15.0384 N.am    1  UNL1       -0.2666
     13 C          63.1695   85.5796   16.2438 C.3     1  UNL1        0.1045
     14 C          62.8073   84.1334   16.4092 C.3     1  UNL1        0.0495
     15 H          63.8382   88.2897   16.0105 H       1  UNL1        0.1565
     16 C          64.3681   89.6676   14.4241 C.ar    1  UNL1        0.0711
     17 C          65.6291   90.3545   14.8578 C.ar    1  UNL1        0.0211
     18 C          66.0177   91.6666   14.2434 C.ar    1  UNL1        0.0594
     19 C          65.1453   92.2917   13.1955 C.ar    1  UNL1        0.2298
     20 N          63.8843   91.6048   12.7619 N.ar    1  UNL1       -0.2085
     21 C          63.4958   90.2927   13.3762 C.ar    1  UNL1        0.1167
     22 O          65.5338   93.6038   12.5812 O.3     1  UNL1       -0.4349
     23 C          66.4546   93.6343   11.3973 C.ar    1  UNL1        0.1606
     24 C          67.0856   92.3656   10.9051 C.ar    1  UNL1        0.0404
     25 C          68.0063   92.3960    9.7213 C.ar    1  UNL1        0.0238
     26 C          68.2960   93.6952    9.0298 C.ar    1  UNL1        0.0987
     27 N          67.6650   94.9638    9.5220 N.ar    1  UNL1       -0.2451
     28 C          66.7443   94.9335   10.7058 C.ar    1  UNL1        0.0938
     29 C          66.1134   96.2021   11.1980 C.3     1  UNL1        0.0554
@<TRIPOS>BOND
     1     1     2    1
     2     2     3   ar
     3     3     4   ar
     4     4     5   ar
     5     5     6   ar
     6     6     7   ar
     7     7     8    1
     8     5     9    1
     9     9    10   am
    10    10    11    2
    11    10    12   am
    12    12    16    1
    13    16    17   ar
    14    17    18   ar
    15    18    19   ar
    16    19    22    1
    17    22    23    1
    18    23    24   ar
    19    24    25   ar
    20    25    26   ar
    21    26    27   ar
    22    27    28   ar
    23    28    29    1
    24    19    20   ar
    25    20    21   ar
    26     9    13    1
    27    13    14    1
    28     7     2   ar
    29    21    16   ar
    30    14     4    1
    31    28    23   ar
    32    12    15    1
@<TRIPOS>MOLECULE
*****
 29 32 0 0 0
SMALL
GASTEIGER

@<TRIPOS>ATOM
      1 C          63.0651   79.6929   10.1273 C.3     1  UNL1        0.0319
      2 C          63.0701   80.8216   11.1151 C.ar    1  UNL1       -0.0115
      3 C          62.6419   80.5799   12.5323 C.ar    1  UNL1       -0.0064
      4 C          62.6469   81.7087   13.5202 C.ar    1  UNL1       -0.0070
      5 C          63.0800   83.0791   13.0909 C.ar    1  UNL1        0.0522
      6 C          63.5082   83.3208   11.6738 C.ar    1  UNL1        0.0257
      7 C          63.5033   82.1921   10.6859 C.ar    1  UNL1        0.0549
      8 CL         63.9315   82.4338    9.2688 Cl      1  UNL1       -0.0825
      9 N          62.9815   83.9896   14.2789 N.am    1  UNL1       -0.2430
     10 C          63.3180   85.4513   14.2997 C.2     1  UNL1        0.3115
     11 O          63.8034   86.1270   13.0516 O.2     1  UNL1       -0.2519
     12 N          63.1690   86.2371   15.5687 N.am    1  UNL1       -0.2666
     13 C          62.4874   83.1820   15.4423 C.3     1  UNL1        0.1045
     14 C          62.2806   81.7722   14.9734 C.3     1  UNL1        0.0495
     15 H          62.8505   85.7936   16.3878 H       1  UNL1        0.1565
     16 C          63.5055   87.6988   15.5896 C.ar    1  UNL1        0.0711
     17 C          64.3905   88.2800   14.5271 C.ar    1  UNL1        0.0211
     18 C          64.7269   89.7416   14.5481 C.ar    1  UNL1        0.0594
     19 C          64.1783   90.6220   15.6316 C.ar    1  UNL1        0.2298
     20 N          63.2933   90.0408   16.6941 N.ar    1  UNL1       -0.2085
     21 C          62.9569   88.5792   16.6731 C.ar    1  UNL1        0.1167
     22 O          64.5147   92.0837   15.6526 O.3     1  UNL1       -0.4349
     23 C          65.9287   92.5312   15.4274 C.ar    1  UNL1        0.1606
     24 C          66.8633   92.6779   16.5914 C.ar    1  UNL1        0.0404
     25 C          68.2771   93.1254   16.3663 C.ar    1  UNL1        0.0238
     26 C          68.7564   93.4262   14.9771 C.ar    1  UNL1        0.0987
     27 N          67.8217   93.2795   13.8131 N.ar    1  UNL1       -0.2451
     28 C          66.4079   92.8320   14.0382 C.ar    1  UNL1        0.0938
     29 C          65.4732   92.6852   12.8742 C.3     1  UNL1        0.0554
@<TRIPOS>BOND
     1     1     2    1
     2     2     3   ar
     3     3     4   ar
     4     4     5   ar
     5     5     6   ar
     6     6     7   ar
     7     7     8    1
     8     5     9    1
     9     9    10   am
    10    10    11    2
    11    10    12   am
    12    12    16    1
    13    16    17   ar
    14    17    18   ar
    15    18    19   ar
    16    19    22    1
    17    22    23    1
    18    23    24   ar
    19    24    25   ar
    20    25    26   ar
    21    26    27   ar
    22    27    28   ar
    23    28    29    1
    24    19    20   ar
    25    20    21   ar
    26     9    13    1
    27    13    14    1
    28     7     2   ar
    29    21    16   ar
    30    14     4    1
    31    28    23   ar
    32    12    15    1
@<TRIPOS>MOLECULE
*****
 29 32 0 0 0
SMALL
GASTEIGER

@<TRIPOS>ATOM
      1 C          63.4885   95.5245   -4.0944 C.3     1  UNL1        0.0319
      2 C          62.8230   95.2143   -2.7865 C.ar    1  UNL1       -0.0115
      3 C          62.1234   96.3007   -2.0246 C.ar    1  UNL1       -0.0064
      4 C          61.4578   95.9904   -0.7167 C.ar    1  UNL1       -0.0070
      5 C          61.4919   94.5938   -0.1705 C.ar    1  UNL1        0.0522
      6 C          62.1915   93.5074   -0.9323 C.ar    1  UNL1        0.0257
      7 C          62.8570   93.8177   -2.2403 C.ar    1  UNL1        0.0549
      8 CL         63.5566   92.7313   -3.0020 Cl      1  UNL1       -0.0825
      9 N          60.7528   94.5884    1.1348 N.am    1  UNL1       -0.2430
     10 C          60.5417   93.3986    2.0235 C.2     1  UNL1        0.3115
     11 O          61.0943   92.0609    1.6298 O.2     1  UNL1       -0.2519
     12 N          59.7778   93.5466    3.3059 N.am    1  UNL1       -0.2666
     13 C          60.2620   95.9817    1.3953 C.3     1  UNL1        0.1045
     14 C          60.6977   96.8482    0.2511 C.3     1  UNL1        0.0495
     15 H          59.4151   94.4246    3.5643 H       1  UNL1        0.1565
     16 C          59.5666   92.3568    4.1947 C.ar    1  UNL1        0.0711
     17 C          58.1823   91.9905    4.6412 C.ar    1  UNL1        0.0211
     18 C          57.9711   90.8007    5.5300 C.ar    1  UNL1        0.0594
     19 C          59.1443   89.9773    5.9722 C.ar    1  UNL1        0.2298
     20 N          60.5287   90.3436    5.5257 N.ar    1  UNL1       -0.2085
     21 C          60.7398   91.5333    4.6369 C.ar    1  UNL1        0.1167
     22 O          58.9332   88.7876    6.8609 O.3     1  UNL1       -0.4349
     23 C          59.8089   88.5836    8.0617 C.ar    1  UNL1        0.1606
     24 C          60.1792   89.7515    8.9270 C.ar    1  UNL1        0.0404
     25 C          61.0548   89.5476   10.1277 C.ar    1  UNL1        0.0238
     26 C          61.5601   88.1756   10.4631 C.ar    1  UNL1        0.0987
     27 N          61.1897   87.0077    9.5978 N.ar    1  UNL1       -0.2451
     28 C          60.3142   87.2116    8.3971 C.ar    1  UNL1        0.0938
     29 C          59.9438   86.0437    7.5318 C.3     1  UNL1        0.0554
@<TRIPOS>BOND
     1     1     2    1
     2     2     3   ar
     3     3     4   ar
     4     4     5   ar
     5     5     6   ar
     6     6     7   ar
     7     7     8    1
     8     5     9    1
     9     9    10   am
    10    10    11    2
    11    10    12   am
    12    12    16    1
    13    16    17   ar
    14    17    18   ar
    15    18    19   ar
    16    19    22    1
    17    22    23    1
    18    23    24   ar
    19    24    25   ar
    20    25    26   ar
    21    26    27   ar
    22    27    28   ar
    23    28    29    1
    24    19    20   ar
    25    20    21   ar
    26     9    13    1
    27    13    14    1
    28     7     2   ar
    29    21    16   ar
    30    14     4    1
    31    28    23   ar
    32    12    15    1
@<TRIPOS>MOLECULE
*****
 29 32 0 0 0
SMALL
GASTEIGER

@<TRIPOS>ATOM
      1 C          67.9893   93.6621   15.5865 C.3     1  UNL1        0.0319
      2 C          66.9577   92.8046   14.9153 C.ar    1  UNL1       -0.0115
      3 C          66.5377   91.5078   15.5415 C.ar    1  UNL1       -0.0064
      4 C          65.5062   90.6503   14.8703 C.ar    1  UNL1       -0.0070
      5 C          64.8946   91.0895   13.5730 C.ar    1  UNL1        0.0522
      6 C          65.3145   92.3862   12.9468 C.ar    1  UNL1        0.0257
      7 C          66.3461   93.2438   13.6180 C.ar    1  UNL1        0.0549
      8 CL         66.7661   94.5405   12.9918 Cl      1  UNL1       -0.0825
      9 N          63.9086   90.0422   13.1474 N.am    1  UNL1       -0.2430
     10 C          63.0679   90.0756   11.9055 C.2     1  UNL1        0.3115
     11 O          63.1742   91.2342   10.9588 O.2     1  UNL1       -0.2519
     12 N          62.1211   88.9503   11.6103 N.am    1  UNL1       -0.2666
     13 C          63.9107   88.9558   14.1817 C.3     1  UNL1        0.1045
     14 C          64.8981   89.3316   15.2465 C.3     1  UNL1        0.0495
     15 H          62.0513   88.1899   12.2317 H       1  UNL1        0.1565
     16 C          61.2804   88.9836   10.3684 C.ar    1  UNL1        0.0711
     17 C          61.3106   87.8292    9.4112 C.ar    1  UNL1        0.0211
     18 C          60.4699   87.8626    8.1693 C.ar    1  UNL1        0.0594
     19 C          59.5991   89.0503    7.8848 C.ar    1  UNL1        0.2298
     20 N          59.5689   90.2047    8.8421 N.ar    1  UNL1       -0.2085
     21 C          60.4095   90.1713   10.0839 C.ar    1  UNL1        0.1167
     22 O          58.7584   89.0837    6.6430 O.3     1  UNL1       -0.4349
     23 C          58.9022   90.2164    5.6701 C.ar    1  UNL1        0.1606
     24 C          60.2662   90.6559    5.2270 C.ar    1  UNL1        0.0404
     25 C          60.4101   91.7885    4.2542 C.ar    1  UNL1        0.0238
     26 C          59.1899   92.4817    3.7245 C.ar    1  UNL1        0.0987
     27 N          57.8259   92.0422    4.1675 N.ar    1  UNL1       -0.2451
     28 C          57.6820   90.9096    5.1404 C.ar    1  UNL1        0.0938
     29 C          56.3180   90.4701    5.5834 C.3     1  UNL1        0.0554
@<TRIPOS>BOND
     1     1     2    1
     2     2     3   ar
     3     3     4   ar
     4     4     5   ar
     5     5     6   ar
     6     6     7   ar
     7     7     8    1
     8     5     9    1
     9     9    10   am
    10    10    11    2
    11    10    12   am
    12    12    16    1
    13    16    17   ar
    14    17    18   ar
    15    18    19   ar
    16    19    22    1
    17    22    23    1
    18    23    24   ar
    19    24    25   ar
    20    25    26   ar
    21    26    27   ar
    22    27    28   ar
    23    28    29    1
    24    19    20   ar
    25    20    21   ar
    26     9    13    1
    27    13    14    1
    28     7     2   ar
    29    21    16   ar
    30    14     4    1
    31    28    23   ar
    32    12    15    1
@<TRIPOS>MOLECULE
*****
 29 32 0 0 0
SMALL
GASTEIGER

@<TRIPOS>ATOM
      1 C          65.3815   96.3805   -1.5828 C.3     1  UNL1        0.0319
      2 C          64.2815   95.8002   -0.7441 C.ar    1  UNL1       -0.0115
      3 C          62.8825   96.3256   -0.8739 C.ar    1  UNL1       -0.0064
      4 C          61.7826   95.7453   -0.0353 C.ar    1  UNL1       -0.0070
      5 C          62.0816   94.6395    0.9332 C.ar    1  UNL1        0.0522
      6 C          63.4805   94.1141    1.0631 C.ar    1  UNL1        0.0257
      7 C          64.5805   94.6944    0.2244 C.ar    1  UNL1        0.0549
      8 CL         65.9795   94.1690    0.3542 Cl      1  UNL1       -0.0825
      9 N          60.8019   94.2677    1.6217 N.am    1  UNL1       -0.2430
     10 C          60.6404   93.2063    2.6692 C.2     1  UNL1        0.3115
     11 O          61.8280   92.4058    3.1151 O.2     1  UNL1       -0.2519
     12 N          59.2914   92.9454    3.2709 N.am    1  UNL1       -0.2666
     13 C          59.7119   95.1437    1.0787 C.3     1  UNL1        0.1045
     14 C          60.3181   96.0568    0.0547 C.3     1  UNL1        0.0495
     15 H          58.5119   93.4708    2.9783 H       1  UNL1        0.1565
     16 C          59.1299   91.8840    4.3185 C.ar    1  UNL1        0.0711
     17 C          60.3296   91.1360    4.8196 C.ar    1  UNL1        0.0211
     18 C          60.1680   90.0747    5.8671 C.ar    1  UNL1        0.0594
     19 C          58.8066   89.7613    6.4135 C.ar    1  UNL1        0.2298
     20 N          57.6069   90.5093    5.9125 N.ar    1  UNL1       -0.2085
     21 C          57.7685   91.5707    4.8649 C.ar    1  UNL1        0.1167
     22 O          58.6450   88.6999    7.4611 O.3     1  UNL1       -0.4349
     23 C          59.7654   88.4120    8.4162 C.ar    1  UNL1        0.1606
     24 C          60.2649   89.4890    9.3329 C.ar    1  UNL1        0.0404
     25 C          61.3851   89.2011   10.2879 C.ar    1  UNL1        0.0238
     26 C          62.0059   87.8361   10.3262 C.ar    1  UNL1        0.0987
     27 N          61.5064   86.7591    9.4094 N.ar    1  UNL1       -0.2451
     28 C          60.3861   87.0470    8.4544 C.ar    1  UNL1        0.0938
     29 C          59.8866   85.9700    7.5376 C.3     1  UNL1        0.0554
@<TRIPOS>BOND
     1     1     2    1
     2     2     3   ar
     3     3     4   ar
     4     4     5   ar
     5     5     6   ar
     6     6     7   ar
     7     7     8    1
     8     5     9    1
     9     9    10   am
    10    10    11    2
    11    10    12   am
    12    12    16    1
    13    16    17   ar
    14    17    18   ar
    15    18    19   ar
    16    19    22    1
    17    22    23    1
    18    23    24   ar
    19    24    25   ar
    20    25    26   ar
    21    26    27   ar
    22    27    28   ar
    23    28    29    1
    24    19    20   ar
    25    20    21   ar
    26     9    13    1
    27    13    14    1
    28     7     2   ar
    29    21    16   ar
    30    14     4    1
    31    28    23   ar
    32    12    15    1
@<TRIPOS>MOLECULE
*****
 29 32 0 0 0
SMALL
GASTEIGER

@<TRIPOS>ATOM
      1 C          59.4350   95.7547   -4.8751 C.3     1  UNL1        0.0319
      2 C          59.5475   95.4002   -3.4220 C.ar    1  UNL1       -0.0115
      3 C          60.0680   96.4094   -2.4419 C.ar    1  UNL1       -0.0064
      4 C          60.1805   96.0549   -0.9888 C.ar    1  UNL1       -0.0070
      5 C          59.7725   94.6912   -0.5157 C.ar    1  UNL1        0.0522
      6 C          59.2519   93.6820   -1.4957 C.ar    1  UNL1        0.0257
      7 C          59.1394   94.0365   -2.9490 C.ar    1  UNL1        0.0549
      8 CL         58.6189   93.0273   -3.9290 Cl      1  UNL1       -0.0825
      9 N          59.9940   94.6293    0.9666 N.am    1  UNL1       -0.2430
     10 C          59.7189   93.4491    1.8506 C.2     1  UNL1        0.3115
     11 O          59.1711   92.1828    1.2621 O.2     1  UNL1       -0.2519
     12 N          59.9915   93.5352    3.3231 N.am    1  UNL1       -0.2666
     13 C          60.5389   95.9547    1.4096 C.3     1  UNL1        0.1045
     14 C          60.6542   96.8358    0.2011 C.3     1  UNL1        0.0495
     15 H          60.3511   94.3664    3.7093 H       1  UNL1        0.1565
     16 C          59.7164   92.3551    4.2072 C.ar    1  UNL1        0.0711
     17 C          58.3177   92.0755    4.6712 C.ar    1  UNL1        0.0211
     18 C          58.0427   90.8953    5.5553 C.ar    1  UNL1        0.0594
     19 C          59.1664   89.9949    5.9753 C.ar    1  UNL1        0.2298
     20 N          60.5651   90.2745    5.5113 N.ar    1  UNL1       -0.2085
     21 C          60.8401   91.4546    4.6272 C.ar    1  UNL1        0.1167
     22 O          58.8914   88.8147    6.8594 O.3     1  UNL1       -0.4349
     23 C          59.7449   88.5680    8.0681 C.ar    1  UNL1        0.1606
     24 C          60.1264   89.7100    8.9626 C.ar    1  UNL1        0.0404
     25 C          60.9798   89.4633   10.1712 C.ar    1  UNL1        0.0238
     26 C          61.4518   88.0746   10.4853 C.ar    1  UNL1        0.0987
     27 N          61.0703   86.9325    9.5907 N.ar    1  UNL1       -0.2451
     28 C          60.2168   87.1792    8.3821 C.ar    1  UNL1        0.0938
     29 C          59.8353   86.0372    7.4876 C.3     1  UNL1        0.0554
@<TRIPOS>BOND
     1     1     2    1
     2     2     3   ar
     3     3     4   ar
     4     4     5   ar
     5     5     6   ar
     6     6     7   ar
     7     7     8    1
     8     5     9    1
     9     9    10   am
    10    10    11    2
    11    10    12   am
    12    12    16    1
    13    16    17   ar
    14    17    18   ar
    15    18    19   ar
    16    19    22    1
    17    22    23    1
    18    23    24   ar
    19    24    25   ar
    20    25    26   ar
    21    26    27   ar
    22    27    28   ar
    23    28    29    1
    24    19    20   ar
    25    20    21   ar
    26     9    13    1
    27    13    14    1
    28     7     2   ar
    29    21    16   ar
    30    14     4    1
    31    28    23   ar
    32    12    15    1
