@<TRIPOS>MOLECULE
*****
 31 35 0 0 0
SMALL
GASTEIGER

@<TRIPOS>ATOM
      1 C          63.6726   85.8134   15.5800 C.ar    1  UNL1        0.2076
      2 N          63.1529   85.4450   16.9380 N.ar    1  UNL1       -0.1277
      3 N          62.8560   86.7140   17.6806 N.ar    1  UNL1       -0.1271
      4 C          63.1924   87.8667   16.7815 C.ar    1  UNL1        0.1865
      5 C          63.1043   89.3512   16.9773 C.ar    1  UNL1        0.0422
      6 C          63.5209   90.2792   15.8748 C.ar    1  UNL1        0.0241
      7 C          64.0256   89.7225   14.5766 C.ar    1  UNL1        0.1015
      8 N          64.1136   88.2379   14.3808 N.ar    1  UNL1       -0.1625
      9 N          63.6970   87.3101   15.4833 N.ar    1  UNL1       -0.1915
     10 C          64.4421   90.6504   13.4741 C.ar    1  UNL1        0.0217
     11 C          65.6379   91.5382   13.6528 C.ar    1  UNL1        0.0040
     12 C          66.0545   92.4661   12.5502 C.ar    1  UNL1        0.0320
     13 C          65.2753   92.5061   11.2691 C.ar    1  UNL1        0.1674
     14 F          65.6919   93.4341   10.1666 F       1  UNL1       -0.2018
     15 C          64.0796   91.6183   11.0905 C.ar    1  UNL1        0.1674
     16 F          63.3003   91.6583    9.8093 F       1  UNL1       -0.2018
     17 C          63.6630   90.6904   12.1930 C.ar    1  UNL1        0.0335
     18 C          64.0940   84.8535   14.5070 C.3     1  UNL1        0.2721
     19 O          63.0622   84.2107   13.6283 O.3     1  UNL1       -0.4671
     20 C          61.1531   86.9937    9.4022 C.ar    1  UNL1        0.1402
     21 C          60.9331   87.0716   10.8839 C.ar    1  UNL1        0.0371
     22 C          61.6428   86.1180   11.7987 C.ar    1  UNL1        0.0076
     23 C          62.5725   85.0864   11.2318 C.ar    1  UNL1        0.0519
     24 C          63.2822   84.1328   12.1466 C.ar    1  UNL1        0.1421
     25 C          64.2119   83.1012   11.5798 C.ar    1  UNL1        0.0576
     26 C          64.4320   83.0232   10.0980 C.ar    1  UNL1        0.1019
     27 N          63.7223   83.9768    9.1832 N.ar    1  UNL1       -0.2435
     28 C          62.7925   85.0085    9.7501 C.ar    1  UNL1        0.0872
     29 C          62.0828   85.9621    8.8353 C.ar    1  UNL1        0.0561
     30 C          59.2399   87.4920    7.7165 C.3     1  UNL1        0.2525
     31 O          60.4434   87.9473    8.4873 O.3     1  UNL1       -0.4714
@<TRIPOS>BOND
     1    30    31    1
     2    31    20    1
     3    20    21   ar
     4    21    22   ar
     5    22    23   ar
     6    23    24   ar
     7    24    19    1
     8    19    18    1
     9    18     1    1
    10     1     2   ar
    11     2     3   ar
    12     3     4   ar
    13     4     5   ar
    14     5     6   ar
    15     6     7   ar
    16     7    10    1
    17    10    11   ar
    18    11    12   ar
    19    12    13   ar
    20    13    14    1
    21    13    15   ar
    22    15    16    1
    23    15    17   ar
    24     7     8   ar
    25     8     9   ar
    26    24    25   ar
    27    25    26   ar
    28    26    27   ar
    29    27    28   ar
    30    28    29   ar
    31    29    20   ar
    32    28    23   ar
    33     9     1   ar
    34     9     4   ar
    35    17    10   ar
@<TRIPOS>MOLECULE
*****
 31 35 0 0 0
SMALL
GASTEIGER

@<TRIPOS>ATOM
      1 C          62.2534   89.6251   11.8136 C.ar    1  UNL1        0.2076
      2 N          61.6687   90.4728   10.7230 N.ar    1  UNL1       -0.1277
      3 N          61.2414   89.5644    9.6085 N.ar    1  UNL1       -0.1271
      4 C          61.5620   88.1552   10.0103 C.ar    1  UNL1        0.1865
      5 C          61.3652   86.8428    9.3113 C.ar    1  UNL1        0.0422
      6 C          61.7939   85.5677    9.9751 C.ar    1  UNL1        0.0241
      7 C          62.4194   85.6053   11.3380 C.ar    1  UNL1        0.1015
      8 N          62.6161   86.9178   12.0370 N.ar    1  UNL1       -0.1625
      9 N          62.1874   88.1927   11.3732 N.ar    1  UNL1       -0.1915
     10 C          62.8481   84.3303   12.0018 C.ar    1  UNL1        0.0217
     11 C          62.7566   83.0304   11.2590 C.ar    1  UNL1        0.0040
     12 C          63.1854   81.7554   11.9229 C.ar    1  UNL1        0.0320
     13 C          63.7055   81.7804   13.3295 C.ar    1  UNL1        0.1674
     14 F          64.1342   80.5054   13.9934 F       1  UNL1       -0.2018
     15 C          63.7969   83.0803   14.0724 C.ar    1  UNL1        0.1674
     16 F          64.3171   83.1053   15.4791 F       1  UNL1       -0.2018
     17 C          63.3682   84.3553   13.4085 C.ar    1  UNL1        0.0335
     18 C          62.8069   90.1224   13.1161 C.3     1  UNL1        0.2721
     19 O          64.2840   90.0705   13.3720 O.3     1  UNL1       -0.4671
     20 C          65.9921   94.3850   10.5940 C.ar    1  UNL1        0.1402
     21 C          65.2510   93.1351   10.2219 C.ar    1  UNL1        0.0371
     22 C          64.9287   92.1136   11.2719 C.ar    1  UNL1        0.0076
     23 C          65.3474   92.3419   12.6941 C.ar    1  UNL1        0.0519
     24 C          65.0251   91.3204   13.7441 C.ar    1  UNL1        0.1421
     25 C          65.4438   91.5487   15.1662 C.ar    1  UNL1        0.0576
     26 C          66.1850   92.7987   15.5384 C.ar    1  UNL1        0.1019
     27 N          66.5073   93.8202   14.4883 N.ar    1  UNL1       -0.2435
     28 C          66.0885   93.5918   13.0662 C.ar    1  UNL1        0.0872
     29 C          66.4109   94.6134   12.0161 C.ar    1  UNL1        0.0561
     30 C          67.3682   95.1188    8.5161 C.3     1  UNL1        0.2525
     31 O          66.3144   95.4066    9.5440 O.3     1  UNL1       -0.4714
@<TRIPOS>BOND
     1    30    31    1
     2    31    20    1
     3    20    21   ar
     4    21    22   ar
     5    22    23   ar
     6    23    24   ar
     7    24    19    1
     8    19    18    1
     9    18     1    1
    10     1     2   ar
    11     2     3   ar
    12     3     4   ar
    13     4     5   ar
    14     5     6   ar
    15     6     7   ar
    16     7    10    1
    17    10    11   ar
    18    11    12   ar
    19    12    13   ar
    20    13    14    1
    21    13    15   ar
    22    15    16    1
    23    15    17   ar
    24     7     8   ar
    25     8     9   ar
    26    24    25   ar
    27    25    26   ar
    28    26    27   ar
    29    27    28   ar
    30    28    29   ar
    31    29    20   ar
    32    28    23   ar
    33     9     1   ar
    34     9     4   ar
    35    17    10   ar
@<TRIPOS>MOLECULE
*****
 31 35 0 0 0
SMALL
GASTEIGER

@<TRIPOS>ATOM
      1 C          63.3941   89.7032   13.0004 C.ar    1  UNL1        0.2076
      2 N          63.2763   89.1198   14.3773 N.ar    1  UNL1       -0.1277
      3 N          64.1397   89.9292   15.2990 N.ar    1  UNL1       -0.1271
      4 C          64.7911   91.0127   14.4917 C.ar    1  UNL1        0.1865
      5 C          65.7443   92.1085   14.8667 C.ar    1  UNL1        0.0422
      6 C          66.2368   93.0647   13.8211 C.ar    1  UNL1        0.0241
      7 C          65.7759   92.9250   12.4005 C.ar    1  UNL1        0.1015
      8 N          64.8227   91.8292   12.0255 N.ar    1  UNL1       -0.1625
      9 N          64.3303   90.8731   13.0711 N.ar    1  UNL1       -0.1915
     10 C          66.2683   93.8811   11.3549 C.ar    1  UNL1        0.0217
     11 C          66.1376   95.3599   11.5696 C.ar    1  UNL1        0.0040
     12 C          66.6300   96.3160   10.5239 C.ar    1  UNL1        0.0320
     13 C          67.2531   95.7934    9.2636 C.ar    1  UNL1        0.1674
     14 F          67.7456   96.7495    8.2179 F       1  UNL1       -0.2018
     15 C          67.3839   94.3146    9.0488 C.ar    1  UNL1        0.1674
     16 F          68.0070   93.7919    7.7885 F       1  UNL1       -0.2018
     17 C          66.8915   93.3585   10.0945 C.ar    1  UNL1        0.0335
     18 C          62.6979   89.2043   11.7689 C.3     1  UNL1        0.2721
     19 O          61.9154   87.9255   11.8158 O.3     1  UNL1       -0.4671
     20 C          63.5115   82.8375   12.7184 C.ar    1  UNL1        0.1402
     21 C          63.1320   83.9822   13.6103 C.ar    1  UNL1        0.0371
     22 C          62.7264   85.2966   13.0122 C.ar    1  UNL1        0.0076
     23 C          62.7004   85.4663   11.5221 C.ar    1  UNL1        0.0519
     24 C          62.2949   86.7808   10.9239 C.ar    1  UNL1        0.1421
     25 C          62.2689   86.9505    9.4338 C.ar    1  UNL1        0.0576
     26 C          62.6484   85.8058    8.5418 C.ar    1  UNL1        0.1019
     27 N          63.0539   84.4913    9.1399 N.ar    1  UNL1       -0.2435
     28 C          63.0799   84.3216   10.6301 C.ar    1  UNL1        0.0872
     29 C          63.4855   83.0072   11.2283 C.ar    1  UNL1        0.0561
     30 C          62.8810   80.4752   13.5970 C.3     1  UNL1        0.2525
     31 O          63.9170   81.5230   13.3166 O.3     1  UNL1       -0.4714
@<TRIPOS>BOND
     1    30    31    1
     2    31    20    1
     3    20    21   ar
     4    21    22   ar
     5    22    23   ar
     6    23    24   ar
     7    24    19    1
     8    19    18    1
     9    18     1    1
    10     1     2   ar
    11     2     3   ar
    12     3     4   ar
    13     4     5   ar
    14     5     6   ar
    15     6     7   ar
    16     7    10    1
    17    10    11   ar
    18    11    12   ar
    19    12    13   ar
    20    13    14    1
    21    13    15   ar
    22    15    16    1
    23    15    17   ar
    24     7     8   ar
    25     8     9   ar
    26    24    25   ar
    27    25    26   ar
    28    26    27   ar
    29    27    28   ar
    30    28    29   ar
    31    29    20   ar
    32    28    23   ar
    33     9     1   ar
    34     9     4   ar
    35    17    10   ar
@<TRIPOS>MOLECULE
*****
 31 35 0 0 0
SMALL
GASTEIGER

@<TRIPOS>ATOM
      1 C          64.2920   87.4631   14.4604 C.ar    1  UNL1        0.2076
      2 N          64.9429   86.3388   15.2102 N.ar    1  UNL1       -0.1277
      3 N          64.6133   85.0578   14.5029 N.ar    1  UNL1       -0.1271
      4 C          63.7586   85.3903   13.3158 C.ar    1  UNL1        0.1865
      5 C          63.1356   84.5316   12.2555 C.ar    1  UNL1        0.0422
      6 C          62.3139   85.1594   11.1688 C.ar    1  UNL1        0.0241
      7 C          62.1154   86.6460   11.1426 C.ar    1  UNL1        0.1015
      8 N          62.7385   87.5047   12.2030 N.ar    1  UNL1       -0.1625
      9 N          63.5601   86.8769   13.2896 N.ar    1  UNL1       -0.1915
     10 C          61.2938   87.2738   10.0560 C.ar    1  UNL1        0.0217
     11 C          61.2430   88.7669    9.9218 C.ar    1  UNL1        0.0040
     12 C          60.4213   89.3947    8.8351 C.ar    1  UNL1        0.0320
     13 C          59.6505   88.5295    7.8827 C.ar    1  UNL1        0.1674
     14 F          58.8289   89.1573    6.7960 F       1  UNL1       -0.2018
     15 C          59.7013   87.0364    8.0169 C.ar    1  UNL1        0.1674
     16 F          58.9305   86.1710    7.0645 F       1  UNL1       -0.2018
     17 C          60.5229   86.4085    9.1035 C.ar    1  UNL1        0.0335
     18 C          64.3609   88.9181   14.8184 C.3     1  UNL1        0.2721
     19 O          64.4715   89.9521   13.7373 O.3     1  UNL1       -0.4671
     20 C          65.8871   94.1509   10.6364 C.ar    1  UNL1        0.1402
     21 C          65.1299   92.8808   10.3848 C.ar    1  UNL1        0.0371
     22 C          64.9104   91.9045   11.5023 C.ar    1  UNL1        0.0076
     23 C          65.4482   92.1984   12.8714 C.ar    1  UNL1        0.0519
     24 C          65.2287   91.2222   13.9889 C.ar    1  UNL1        0.1421
     25 C          65.7664   91.5161   15.3580 C.ar    1  UNL1        0.0576
     26 C          66.5237   92.7863   15.6096 C.ar    1  UNL1        0.1019
     27 N          66.7432   93.7625   14.4921 N.ar    1  UNL1       -0.2435
     28 C          66.2054   93.4686   13.1230 C.ar    1  UNL1        0.0872
     29 C          66.4249   94.4448   12.0055 C.ar    1  UNL1        0.0561
     30 C          67.4428   95.2039    8.8417 C.3     1  UNL1        0.2525
     31 O          66.1066   95.1271    9.5189 O.3     1  UNL1       -0.4714
@<TRIPOS>BOND
     1    30    31    1
     2    31    20    1
     3    20    21   ar
     4    21    22   ar
     5    22    23   ar
     6    23    24   ar
     7    24    19    1
     8    19    18    1
     9    18     1    1
    10     1     2   ar
    11     2     3   ar
    12     3     4   ar
    13     4     5   ar
    14     5     6   ar
    15     6     7   ar
    16     7    10    1
    17    10    11   ar
    18    11    12   ar
    19    12    13   ar
    20    13    14    1
    21    13    15   ar
    22    15    16    1
    23    15    17   ar
    24     7     8   ar
    25     8     9   ar
    26    24    25   ar
    27    25    26   ar
    28    26    27   ar
    29    27    28   ar
    30    28    29   ar
    31    29    20   ar
    32    28    23   ar
    33     9     1   ar
    34     9     4   ar
    35    17    10   ar
@<TRIPOS>MOLECULE
*****
 31 35 0 0 0
SMALL
GASTEIGER

@<TRIPOS>ATOM
      1 C          64.2635   86.7806   14.4497 C.ar    1  UNL1        0.2076
      2 N          64.9356   85.6509   15.1721 N.ar    1  UNL1       -0.1277
      3 N          64.6513   84.3849   14.4195 N.ar    1  UNL1       -0.1271
      4 C          63.8034   84.7322   13.2318 C.ar    1  UNL1        0.1865
      5 C          63.2186   83.8916   12.1359 C.ar    1  UNL1        0.0422
      6 C          62.3940   84.5315   11.0585 C.ar    1  UNL1        0.0241
      7 C          62.1544   86.0121   11.0772 C.ar    1  UNL1        0.1015
      8 N          62.7392   86.8528   12.1732 N.ar    1  UNL1       -0.1625
      9 N          63.5637   86.2128   13.2505 N.ar    1  UNL1       -0.1915
     10 C          61.3299   86.6520    9.9998 C.ar    1  UNL1        0.0217
     11 C          60.8908   85.8465    8.8131 C.ar    1  UNL1        0.0040
     12 C          60.0663   86.4865    7.7358 C.ar    1  UNL1        0.0320
     13 C          59.6809   87.9319    7.8451 C.ar    1  UNL1        0.1674
     14 F          58.8564   88.5720    6.7678 F       1  UNL1       -0.2018
     15 C          60.1200   88.7375    9.0318 C.ar    1  UNL1        0.1674
     16 F          59.7346   90.1830    9.1413 F       1  UNL1       -0.2018
     17 C          60.9444   88.0976   10.1092 C.ar    1  UNL1        0.0335
     18 C          64.2870   88.2246   14.8552 C.3     1  UNL1        0.2721
     19 O          63.3151   89.1907   14.2452 O.3     1  UNL1       -0.4671
     20 C          66.9212   93.2146   14.4783 C.ar    1  UNL1        0.1402
     21 C          66.4418   92.1893   15.4626 C.ar    1  UNL1        0.0371
     22 C          65.3996   91.1898   15.0568 C.ar    1  UNL1        0.0076
     23 C          64.8367   91.2155   13.6667 C.ar    1  UNL1        0.0519
     24 C          63.7945   90.2160   13.2609 C.ar    1  UNL1        0.1421
     25 C          63.2317   90.2417   11.8708 C.ar    1  UNL1        0.0576
     26 C          63.7111   91.2670   10.8864 C.ar    1  UNL1        0.1019
     27 N          64.7533   92.2665   11.2921 N.ar    1  UNL1       -0.2435
     28 C          65.3162   92.2408   12.6824 C.ar    1  UNL1        0.0872
     29 C          66.3584   93.2403   13.0882 C.ar    1  UNL1        0.0561
     30 C          68.9614   93.8668   15.9487 C.3     1  UNL1        0.2525
     31 O          67.9635   94.2141   14.8841 O.3     1  UNL1       -0.4714
@<TRIPOS>BOND
     1    30    31    1
     2    31    20    1
     3    20    21   ar
     4    21    22   ar
     5    22    23   ar
     6    23    24   ar
     7    24    19    1
     8    19    18    1
     9    18     1    1
    10     1     2   ar
    11     2     3   ar
    12     3     4   ar
    13     4     5   ar
    14     5     6   ar
    15     6     7   ar
    16     7    10    1
    17    10    11   ar
    18    11    12   ar
    19    12    13   ar
    20    13    14    1
    21    13    15   ar
    22    15    16    1
    23    15    17   ar
    24     7     8   ar
    25     8     9   ar
    26    24    25   ar
    27    25    26   ar
    28    26    27   ar
    29    27    28   ar
    30    28    29   ar
    31    29    20   ar
    32    28    23   ar
    33     9     1   ar
    34     9     4   ar
    35    17    10   ar
@<TRIPOS>MOLECULE
*****
 31 35 0 0 0
SMALL
GASTEIGER

@<TRIPOS>ATOM
      1 C          61.5649   86.0859    8.9238 C.ar    1  UNL1        0.2076
      2 N          60.3412   86.0294    8.0583 N.ar    1  UNL1       -0.1277
      3 N          59.6245   87.3412    8.1826 N.ar    1  UNL1       -0.1271
      4 C          60.4054   88.2086    9.1250 C.ar    1  UNL1        0.1865
      5 C          60.1793   89.6045    9.6251 C.ar    1  UNL1        0.0422
      6 C          61.1526   90.2247   10.5833 C.ar    1  UNL1        0.0241
      7 C          62.3518   89.4489   11.0414 C.ar    1  UNL1        0.1015
      8 N          62.5779   88.0529   10.5412 N.ar    1  UNL1       -0.1625
      9 N          61.6046   87.4327    9.5830 N.ar    1  UNL1       -0.1915
     10 C          63.3251   90.0691   11.9996 C.ar    1  UNL1        0.0217
     11 C          63.6668   89.3675   13.2806 C.ar    1  UNL1        0.0040
     12 C          64.6401   89.9877   14.2388 C.ar    1  UNL1        0.0320
     13 C          65.2715   91.3094   13.9160 C.ar    1  UNL1        0.1674
     14 F          66.2448   91.9297   14.8742 F       1  UNL1       -0.2018
     15 C          64.9298   92.0110   12.6350 C.ar    1  UNL1        0.1674
     16 F          65.5613   93.3328   12.3121 F       1  UNL1       -0.2018
     17 C          63.9566   91.3908   11.6768 C.ar    1  UNL1        0.0335
     18 C          62.5723   84.9884    9.0993 C.3     1  UNL1        0.2721
     19 O          63.4495   84.9630   10.3158 O.3     1  UNL1       -0.4671
     20 C          63.5083   85.1006   15.7221 C.ar    1  UNL1        0.1402
     21 C          63.7382   86.1273   14.6530 C.ar    1  UNL1        0.0371
     22 C          63.6419   85.7392   13.2073 C.ar    1  UNL1        0.0076
     23 C          63.3159   84.3244   12.8306 C.ar    1  UNL1        0.0519
     24 C          63.2196   83.9363   11.3849 C.ar    1  UNL1        0.1421
     25 C          62.8936   82.5215   11.0083 C.ar    1  UNL1        0.0576
     26 C          62.6637   81.4946   12.0774 C.ar    1  UNL1        0.1019
     27 N          62.7599   81.8828   13.5231 N.ar    1  UNL1       -0.2435
     28 C          63.0860   83.2977   13.8997 C.ar    1  UNL1        0.0872
     29 C          63.1823   83.6858   15.3454 C.ar    1  UNL1        0.0561
     30 C          62.6772   86.5253   17.7294 C.3     1  UNL1        0.2525
     31 O          63.6046   85.4887   17.1678 O.3     1  UNL1       -0.4714
@<TRIPOS>BOND
     1    30    31    1
     2    31    20    1
     3    20    21   ar
     4    21    22   ar
     5    22    23   ar
     6    23    24   ar
     7    24    19    1
     8    19    18    1
     9    18     1    1
    10     1     2   ar
    11     2     3   ar
    12     3     4   ar
    13     4     5   ar
    14     5     6   ar
    15     6     7   ar
    16     7    10    1
    17    10    11   ar
    18    11    12   ar
    19    12    13   ar
    20    13    14    1
    21    13    15   ar
    22    15    16    1
    23    15    17   ar
    24     7     8   ar
    25     8     9   ar
    26    24    25   ar
    27    25    26   ar
    28    26    27   ar
    29    27    28   ar
    30    28    29   ar
    31    29    20   ar
    32    28    23   ar
    33     9     1   ar
    34     9     4   ar
    35    17    10   ar
@<TRIPOS>MOLECULE
*****
 31 35 0 0 0
SMALL
GASTEIGER

@<TRIPOS>ATOM
      1 C          64.1933   86.8464   14.7669 C.ar    1  UNL1        0.2076
      2 N          65.0445   85.9045   15.5659 N.ar    1  UNL1       -0.1277
      3 N          65.0777   84.5877   14.8483 N.ar    1  UNL1       -0.1271
      4 C          64.2471   84.7158   13.6058 C.ar    1  UNL1        0.1865
      5 C          63.9179   83.7417   12.5138 C.ar    1  UNL1        0.0422
      6 C          63.0420   84.1635   11.3713 C.ar    1  UNL1        0.0241
      7 C          62.4955   85.5594   11.3211 C.ar    1  UNL1        0.1015
      8 N          62.8247   86.5336   12.4132 N.ar    1  UNL1       -0.1625
      9 N          63.7005   86.1117   13.5555 N.ar    1  UNL1       -0.1915
     10 C          61.6197   85.9813   10.1787 C.ar    1  UNL1        0.0217
     11 C          60.6018   87.0655   10.3747 C.ar    1  UNL1        0.0040
     12 C          59.7260   87.4873    9.2322 C.ar    1  UNL1        0.0320
     13 C          59.8680   86.8249    7.8940 C.ar    1  UNL1        0.1674
     14 F          58.9922   87.2467    6.7516 F       1  UNL1       -0.2018
     15 C          60.8859   85.7407    7.6981 C.ar    1  UNL1        0.1674
     16 F          61.0279   85.0782    6.3598 F       1  UNL1       -0.2018
     17 C          61.7617   85.3189    8.8404 C.ar    1  UNL1        0.0335
     18 C          63.8885   88.2727   15.1177 C.3     1  UNL1        0.2721
     19 O          64.6933   89.3830   14.5100 O.3     1  UNL1       -0.4671
     20 C          66.3184   93.7170   11.7125 C.ar    1  UNL1        0.1402
     21 C          66.7744   93.0708   12.9871 C.ar    1  UNL1        0.0371
     22 C          66.0807   91.8415   13.4947 C.ar    1  UNL1        0.0076
     23 C          64.9310   91.2584   12.7278 C.ar    1  UNL1        0.0519
     24 C          64.2373   90.0291   13.2354 C.ar    1  UNL1        0.1421
     25 C          63.0877   89.4460   12.4685 C.ar    1  UNL1        0.0576
     26 C          62.6316   90.0922   11.1939 C.ar    1  UNL1        0.1019
     27 N          63.3253   91.3214   10.6863 N.ar    1  UNL1       -0.2435
     28 C          64.4750   91.9046   11.4533 C.ar    1  UNL1        0.0872
     29 C          65.1687   93.1338   10.9456 C.ar    1  UNL1        0.0561
     30 C          66.8499   95.3614    9.7727 C.3     1  UNL1        0.2525
     31 O          67.0120   94.9462   11.2049 O.3     1  UNL1       -0.4714
@<TRIPOS>BOND
     1    30    31    1
     2    31    20    1
     3    20    21   ar
     4    21    22   ar
     5    22    23   ar
     6    23    24   ar
     7    24    19    1
     8    19    18    1
     9    18     1    1
    10     1     2   ar
    11     2     3   ar
    12     3     4   ar
    13     4     5   ar
    14     5     6   ar
    15     6     7   ar
    16     7    10    1
    17    10    11   ar
    18    11    12   ar
    19    12    13   ar
    20    13    14    1
    21    13    15   ar
    22    15    16    1
    23    15    17   ar
    24     7     8   ar
    25     8     9   ar
    26    24    25   ar
    27    25    26   ar
    28    26    27   ar
    29    27    28   ar
    30    28    29   ar
    31    29    20   ar
    32    28    23   ar
    33     9     1   ar
    34     9     4   ar
    35    17    10   ar
@<TRIPOS>MOLECULE
*****
 31 35 0 0 0
SMALL
GASTEIGER

@<TRIPOS>ATOM
      1 C          63.7372   88.2902   15.3316 C.ar    1  UNL1        0.2076
      2 N          63.4752   88.7504   16.7350 N.ar    1  UNL1       -0.1277
      3 N          62.9888   87.5723   17.5259 N.ar    1  UNL1       -0.1271
      4 C          62.9503   86.3840   16.6113 C.ar    1  UNL1        0.1865
      5 C          62.5538   84.9553   16.8382 C.ar    1  UNL1        0.0422
      6 C          62.6198   83.9702   15.7089 C.ar    1  UNL1        0.0241
      7 C          63.0823   84.4139   14.3527 C.ar    1  UNL1        0.1015
      8 N          63.4788   85.8427   14.1259 N.ar    1  UNL1       -0.1625
      9 N          63.4128   86.8277   15.2552 N.ar    1  UNL1       -0.1915
     10 C          63.1483   83.4289   13.2234 C.ar    1  UNL1        0.0217
     11 C          63.6229   83.8697   11.8705 C.ar    1  UNL1        0.0040
     12 C          63.6889   82.8846   10.7412 C.ar    1  UNL1        0.0320
     13 C          63.2804   81.4588   10.9648 C.ar    1  UNL1        0.1674
     14 F          63.3464   80.4737    9.8355 F       1  UNL1       -0.2018
     15 C          62.8058   81.0180   12.3178 C.ar    1  UNL1        0.1674
     16 F          62.3972   79.5921   12.5415 F       1  UNL1       -0.2018
     17 C          62.7398   82.0030   13.4471 C.ar    1  UNL1        0.0335
     18 C          64.2361   89.1428   14.2028 C.3     1  UNL1        0.2721
     19 O          63.9032   90.6049   14.1633 O.3     1  UNL1       -0.4671
     20 C          66.2425   93.6790   10.3781 C.ar    1  UNL1        0.1402
     21 C          65.1433   92.6586   10.3562 C.ar    1  UNL1        0.0371
     22 C          64.7299   91.9740   11.6252 C.ar    1  UNL1        0.0076
     23 C          65.4157   92.3098   12.9162 C.ar    1  UNL1        0.0519
     24 C          65.0024   91.6253   14.1853 C.ar    1  UNL1        0.1421
     25 C          65.6882   91.9611   15.4763 C.ar    1  UNL1        0.0576
     26 C          66.7875   92.9815   15.4983 C.ar    1  UNL1        0.1019
     27 N          67.2009   93.6661   14.2293 N.ar    1  UNL1       -0.2435
     28 C          66.5149   93.3302   12.9382 C.ar    1  UNL1        0.0872
     29 C          66.9283   94.0148   11.6692 C.ar    1  UNL1        0.0561
     30 C          67.2604   95.7353    9.1595 C.3     1  UNL1        0.2525
     31 O          66.6558   94.3635    9.1091 O.3     1  UNL1       -0.4714
@<TRIPOS>BOND
     1    30    31    1
     2    31    20    1
     3    20    21   ar
     4    21    22   ar
     5    22    23   ar
     6    23    24   ar
     7    24    19    1
     8    19    18    1
     9    18     1    1
    10     1     2   ar
    11     2     3   ar
    12     3     4   ar
    13     4     5   ar
    14     5     6   ar
    15     6     7   ar
    16     7    10    1
    17    10    11   ar
    18    11    12   ar
    19    12    13   ar
    20    13    14    1
    21    13    15   ar
    22    15    16    1
    23    15    17   ar
    24     7     8   ar
    25     8     9   ar
    26    24    25   ar
    27    25    26   ar
    28    26    27   ar
    29    27    28   ar
    30    28    29   ar
    31    29    20   ar
    32    28    23   ar
    33     9     1   ar
    34     9     4   ar
    35    17    10   ar
@<TRIPOS>MOLECULE
*****
 31 35 0 0 0
SMALL
GASTEIGER

@<TRIPOS>ATOM
      1 C          63.6579   82.1280   10.7016 C.ar    1  UNL1        0.2076
      2 N          63.2849   80.6971   10.4501 N.ar    1  UNL1       -0.1277
      3 N          62.6692   80.1512   11.7043 N.ar    1  UNL1       -0.1271
      4 C          62.6617   81.2449   12.7309 C.ar    1  UNL1        0.1865
      5 C          62.1774   81.2861   14.1499 C.ar    1  UNL1        0.0422
      6 C          62.3042   82.5490   14.9494 C.ar    1  UNL1        0.0241
      7 C          62.9153   83.7707   14.3297 C.ar    1  UNL1        0.1015
      8 N          63.3996   83.7294   12.9106 N.ar    1  UNL1       -0.1625
      9 N          63.2728   82.4665   12.1112 N.ar    1  UNL1       -0.1915
     10 C          63.0421   85.0336   15.1290 C.ar    1  UNL1        0.0217
     11 C          62.3669   85.1474   16.4636 C.ar    1  UNL1        0.0040
     12 C          62.4938   86.4104   17.2630 C.ar    1  UNL1        0.0320
     13 C          63.2957   87.5594   16.7277 C.ar    1  UNL1        0.1674
     14 F          63.4225   88.8224   17.5271 F       1  UNL1       -0.2018
     15 C          63.9708   87.4456   15.3931 C.ar    1  UNL1        0.1674
     16 F          64.7728   88.5946   14.8578 F       1  UNL1       -0.2018
     17 C          63.8440   86.1827   14.5937 C.ar    1  UNL1        0.0335
     18 C          64.3029   83.0573    9.7164 C.3     1  UNL1        0.2721
     19 O          63.9763   84.5211    9.7414 O.3     1  UNL1       -0.4671
     20 C          60.2954   88.4186   10.4554 C.ar    1  UNL1        0.1402
     21 C          61.4229   87.8874   11.2899 C.ar    1  UNL1        0.0371
     22 C          62.2741   86.7653   10.7737 C.ar    1  UNL1        0.0076
     23 C          61.9976   86.1743    9.4231 C.ar    1  UNL1        0.0519
     24 C          62.8487   85.0522    8.9069 C.ar    1  UNL1        0.1421
     25 C          62.5723   84.4613    7.5563 C.ar    1  UNL1        0.0576
     26 C          61.4447   84.9924    6.7217 C.ar    1  UNL1        0.1019
     27 N          60.5935   86.1146    7.2379 N.ar    1  UNL1       -0.2435
     28 C          60.8700   86.7055    8.5886 C.ar    1  UNL1        0.0872
     29 C          60.0189   87.8276    9.1048 C.ar    1  UNL1        0.0561
     30 C          59.2361   89.7063   12.4478 C.3     1  UNL1        0.2525
     31 O          59.4442   89.5407   10.9716 O.3     1  UNL1       -0.4714
@<TRIPOS>BOND
     1    30    31    1
     2    31    20    1
     3    20    21   ar
     4    21    22   ar
     5    22    23   ar
     6    23    24   ar
     7    24    19    1
     8    19    18    1
     9    18     1    1
    10     1     2   ar
    11     2     3   ar
    12     3     4   ar
    13     4     5   ar
    14     5     6   ar
    15     6     7   ar
    16     7    10    1
    17    10    11   ar
    18    11    12   ar
    19    12    13   ar
    20    13    14    1
    21    13    15   ar
    22    15    16    1
    23    15    17   ar
    24     7     8   ar
    25     8     9   ar
    26    24    25   ar
    27    25    26   ar
    28    26    27   ar
    29    27    28   ar
    30    28    29   ar
    31    29    20   ar
    32    28    23   ar
    33     9     1   ar
    34     9     4   ar
    35    17    10   ar
