@<TRIPOS>MOLECULE
*****
 43 46 0 0 0
SMALL
GASTEIGER

@<TRIPOS>ATOM
      1 C          63.8575   90.8067   12.9627 C.3     1  UNL1        0.0735
      2 C          63.1388   90.8944   11.6491 C.3     1  UNL1        0.0217
      3 C          62.7296   89.5072   11.2511 C.3     1  UNL1        0.0282
      4 C          63.1955   88.5623   12.3188 C.3     1  UNL1        0.1348
      5 C          63.0750   87.0742   12.4644 C.ar    1  UNL1       -0.0061
      6 C          62.3779   86.2711   11.4066 C.ar    1  UNL1       -0.0032
      7 C          62.2575   84.7831   11.5522 C.ar    1  UNL1       -0.0015
      8 C          62.8341   84.0982   12.7557 C.ar    1  UNL1        0.0232
      9 C          63.5312   84.9012   13.8135 C.ar    1  UNL1       -0.0057
     10 C          63.6516   86.3893   13.6679 C.ar    1  UNL1       -0.0248
     11 C          64.3487   87.1924   14.7258 C.3     1  UNL1        0.0262
     12 C          64.4692   88.6804   14.5801 C.3     1  UNL1        0.0083
     13 C          63.8926   89.3654   13.3766 C.3     1  UNL1        0.0429
     14 C          65.9142   92.2253   13.6753 C.2     1  UNL1        0.2248
     15 O          66.8077   91.3409   12.8570 O.2     1  UNL1       -0.2750
     16 N          64.4391   91.9582   13.7282 N.am    1  UNL1       -0.3058
     17 H          63.8527   92.5387   14.2652 H       1  UNL1        0.1494
     18 C          66.4959   93.3768   14.4407 C.3     1  UNL1        0.1118
     19 C          68.5720   93.5571   14.8368 C.3     1  UNL1        0.0298
     20 C          67.3751   93.1202   15.6285 C.3     1  UNL1        0.0971
     21 C          66.1783   92.6833   16.4201 C.3     1  UNL1        0.0298
     22 O          68.2544   92.8636   16.8164 O.3     1  UNL1       -0.3862
     23 H          67.7142   92.5419   17.5550 H       1  UNL1        0.2102
     24 S          62.4747   87.8947   11.1853 S.O2    1  UNL1        0.0090
     25 O          63.0589   87.6644   10.6942 O.2     1  UNL1       -0.1684
     26 O          61.1621   88.1749   11.8549 O.2     1  UNL1       -0.1684
     27 C          61.7539   87.2271   10.0517 C.ar    1  UNL1        0.1060
     28 C          60.2688   87.3833    9.9117 C.ar    1  UNL1        0.0207
     29 C          59.5480   86.7158    8.7782 C.ar    1  UNL1        0.0310
     30 C          60.3124   85.8920    7.7847 C.ar    1  UNL1        0.1402
     31 F          59.5917   85.2244    6.6512 F       1  UNL1       -0.2042
     32 C          61.7977   85.7358    7.9248 C.ar    1  UNL1        0.0310
     33 C          62.5184   86.4034    9.0583 C.ar    1  UNL1        0.0207
     34 C          62.7136   82.6101   12.9013 C.3     1  UNL1        0.3242
     35 F          61.9128   82.7977   14.1557 F       1  UNL1       -0.2176
     36 C          62.5931   81.1221   13.0470 C.3     1  UNL1        0.4363
     37 F          62.4726   79.6340   13.1926 F       1  UNL1       -0.1666
     38 F          61.1021   81.2525   13.1463 F       1  UNL1       -0.1666
     39 F          64.0583   80.8111   12.9662 F       1  UNL1       -0.1666
     40 C          63.5144   82.4224   11.6470 C.3     1  UNL1        0.4363
     41 F          64.3153   82.2348   10.3925 F       1  UNL1       -0.1666
     42 F          62.5029   81.5996   10.9056 F       1  UNL1       -0.1666
     43 F          64.7925   83.1591   11.9187 F       1  UNL1       -0.1666
@<TRIPOS>BOND
     1    19    20    1
     2    20    21    1
     3    20    22    1
     4    20    18    1
     5    18    14    1
     6    14    15    2
     7    14    16   am
     8     1    16    1
     9     1     2    1
    10     2     3    1
    11     3     4    1
    12     4    24    1
    13    24    25    2
    14    24    26    2
    15    24    27    1
    16    27    28   ar
    17    28    29   ar
    18    29    30   ar
    19    30    31    1
    20    30    32   ar
    21    32    33   ar
    22     4     5    1
    23     5     6   ar
    24     6     7   ar
    25     7     8   ar
    26     8    34    1
    27    34    35    1
    28    34    36    1
    29    36    37    1
    30    36    38    1
    31    36    39    1
    32    34    40    1
    33    40    41    1
    34    40    42    1
    35    40    43    1
    36     8     9   ar
    37     9    10   ar
    38    10    11    1
    39    11    12    1
    40    13    12    1
    41    13     1    1
    42    13     4    1
    43    33    27   ar
    44    10     5   ar
    45    22    23    1
    46    16    17    1
