@<TRIPOS>MOLECULE
*****
 33 37 0 0 0
SMALL
GASTEIGER

@<TRIPOS>ATOM
      1 C          63.3089   86.5053   13.2691 C.ar    1  UNL1        0.2398
      2 N          63.9618   87.6868   13.9231 N.ar    1  UNL1       -0.1961
      3 C          63.7213   89.0676   13.3888 C.ar    1  UNL1        0.1361
      4 C          62.8279   89.2670   12.2005 C.ar    1  UNL1        0.0501
      5 C          62.1749   88.0855   11.5465 C.ar    1  UNL1        0.0767
      6 N          62.4154   86.7047   12.0808 N.ar    1  UNL1       -0.2144
      7 C          63.9231   84.7776   15.2141 C.ar    1  UNL1        0.2041
      8 N          64.0630   83.2868   15.3033 N.ar    1  UNL1       -0.2134
      9 C          63.7756   82.7123   13.9478 C.ar    1  UNL1        0.1003
     10 C          63.7620   81.3017   13.4378 C.ar    1  UNL1        0.0207
     11 C          63.4310   81.0269   12.0009 C.ar    1  UNL1        0.0016
     12 C          63.1135   82.1627   11.0739 C.ar    1  UNL1        0.0016
     13 C          63.1271   83.5732   11.5839 C.ar    1  UNL1        0.0192
     14 C          63.4582   83.8480   13.0208 C.ar    1  UNL1        0.0869
     15 N          63.5493   85.1244   13.8034 N.ar    1  UNL1       -0.2480
     16 C          62.9566   86.1653   17.1863 C.3     1  UNL1        0.1108
     17 N          64.1221   85.7507   16.3381 N.pl3   1  UNL1       -0.3023
     18 H          65.0178   86.1172   16.5192 H       1  UNL1        0.1497
     19 N          64.3743   90.2491   14.0428 N.pl3   1  UNL1       -0.2897
     20 C          65.3326   91.1020   13.2655 C.3     1  UNL1        0.1242
     21 C          65.9855   92.2834   13.9196 C.3     1  UNL1        0.1636
     22 O          65.6802   92.6121   15.3509 O.3     1  UNL1       -0.3502
     23 C          64.7219   91.7592   16.1282 C.3     1  UNL1        0.1618
     24 C          64.0689   90.5777   15.4742 C.3     1  UNL1        0.1038
     25 C          63.1106   89.7249   16.2515 C.3     1  UNL1        0.0241
     26 C          61.2815   88.2848   10.3582 C.3     1  UNL1        0.1119
     27 C          60.7177   88.1298    8.9768 C.3     1  UNL1        0.0204
     28 C          61.9203   87.3341    9.3897 C.3     1  UNL1        0.0204
     29 S          60.3324   89.3047   10.9140 S.3     1  UNL1        0.0687
     30 C          59.3833   90.3246   11.4698 C.3     1  UNL1        0.1170
     31 N          59.6517   88.2348   11.7150 N.2     1  UNL1       -0.2504
     32 O          61.0132   90.3747   10.1129 O.2     1  UNL1       -0.2461
     33 H          59.9677   87.3039   11.6621 H       1  UNL1        0.1971
@<TRIPOS>BOND
     1    16    17    1
     2    17     7    1
     3     7     8   ar
     4     8     9   ar
     5     9    10   ar
     6    10    11   ar
     7    11    12   ar
     8    12    13   ar
     9    13    14   ar
    10    14    15   ar
    11    15     1    1
    12     1     2   ar
    13     2     3   ar
    14     3    19    1
    15    19    20    1
    16    20    21    1
    17    21    22    1
    18    22    23    1
    19    23    24    1
    20    24    25    1
    21     3     4   ar
    22     4     5   ar
    23     5    26    1
    24    26    29    1
    25    29    30    1
    26    29    31    2
    27    29    32    2
    28    26    27    1
    29    27    28    1
    30     5     6   ar
    31    15     7   ar
    32     6     1   ar
    33    14     9   ar
    34    24    19    1
    35    28    26    1
    36    17    18    1
    37    31    33    1
@<TRIPOS>MOLECULE
*****
 33 37 0 0 0
SMALL
GASTEIGER

@<TRIPOS>ATOM
      1 C          62.9400   86.2409   12.7118 C.ar    1  UNL1        0.2398
      2 N          62.1219   86.0723   11.4659 N.ar    1  UNL1       -0.1961
      3 C          61.8029   87.2630   10.6112 C.ar    1  UNL1        0.1361
      4 C          62.3020   88.6223   11.0023 C.ar    1  UNL1        0.0501
      5 C          63.1200   88.7911   12.2482 C.ar    1  UNL1        0.0767
      6 N          63.4391   87.6004   13.1030 N.ar    1  UNL1       -0.2144
      7 C          63.6861   85.0859   15.0040 C.ar    1  UNL1        0.2041
      8 N          63.8980   83.6726   15.4596 N.ar    1  UNL1       -0.2134
      9 C          63.6018   82.7635   14.3038 C.ar    1  UNL1        0.1003
     10 C          63.6407   81.2704   14.1657 C.ar    1  UNL1        0.0207
     11 C          63.2846   80.6288   12.8574 C.ar    1  UNL1        0.0016
     12 C          62.8897   81.4803   11.6874 C.ar    1  UNL1        0.0016
     13 C          62.8508   82.9734   11.8256 C.ar    1  UNL1        0.0192
     14 C          63.2068   83.6150   13.1338 C.ar    1  UNL1        0.0869
     15 N          63.2590   85.0503   13.5665 N.ar    1  UNL1       -0.2480
     16 C          63.0662   86.5010   17.0928 C.3     1  UNL1        0.1108
     17 N          63.8693   86.3184   15.8391 N.pl3   1  UNL1       -0.3023
     18 H          64.5165   87.0075   15.5643 H       1  UNL1        0.1497
     19 N          60.9849   87.0943    9.3653 N.pl3   1  UNL1       -0.2897
     20 C          59.7402   87.9081    9.1693 C.3     1  UNL1        0.1242
     21 C          58.9221   87.7394    7.9234 C.3     1  UNL1        0.1636
     22 O          59.3487   86.7568    6.8734 O.3     1  UNL1       -0.3502
     23 C          60.5934   85.9429    7.0694 C.3     1  UNL1        0.1618
     24 C          61.4114   86.1116    8.3153 C.3     1  UNL1        0.1038
     25 C          62.6561   85.2977    8.5112 C.3     1  UNL1        0.0241
     26 C          63.6191   90.1504   12.6395 C.3     1  UNL1        0.1119
     27 C          64.1248   91.5568   12.5119 C.3     1  UNL1        0.0204
     28 C          63.8114   90.7580   11.2816 C.3     1  UNL1        0.0204
     29 S          63.6002   90.0149   14.1331 S.3     1  UNL1        0.0687
     30 C          63.5813   89.8794   15.6269 C.3     1  UNL1        0.1170
     31 N          62.1012   89.9684   14.1100 N.2     1  UNL1       -0.2504
     32 O          65.0993   90.0614   14.1564 O.2     1  UNL1       -0.2461
     33 H          61.6199   90.0301   13.2534 H       1  UNL1        0.1971
@<TRIPOS>BOND
     1    16    17    1
     2    17     7    1
     3     7     8   ar
     4     8     9   ar
     5     9    10   ar
     6    10    11   ar
     7    11    12   ar
     8    12    13   ar
     9    13    14   ar
    10    14    15   ar
    11    15     1    1
    12     1     2   ar
    13     2     3   ar
    14     3    19    1
    15    19    20    1
    16    20    21    1
    17    21    22    1
    18    22    23    1
    19    23    24    1
    20    24    25    1
    21     3     4   ar
    22     4     5   ar
    23     5    26    1
    24    26    29    1
    25    29    30    1
    26    29    31    2
    27    29    32    2
    28    26    27    1
    29    27    28    1
    30     5     6   ar
    31    15     7   ar
    32     6     1   ar
    33    14     9   ar
    34    24    19    1
    35    28    26    1
    36    17    18    1
    37    31    33    1
@<TRIPOS>MOLECULE
*****
 33 37 0 0 0
SMALL
GASTEIGER

@<TRIPOS>ATOM
      1 C          62.3898   87.1371   11.8639 C.ar    1  UNL1        0.2398
      2 N          62.8551   88.4642   12.3855 N.ar    1  UNL1       -0.1961
      3 C          63.7875   88.5239   13.5589 C.ar    1  UNL1        0.1361
      4 C          64.2547   87.2564   14.2109 C.ar    1  UNL1        0.0501
      5 C          63.7895   85.9291   13.6893 C.ar    1  UNL1        0.0767
      6 N          62.8571   85.8695   12.5159 N.ar    1  UNL1       -0.2144
      7 C          60.1290   87.7659   10.5840 C.ar    1  UNL1        0.2041
      8 N          59.5403   87.4327    9.2451 N.ar    1  UNL1       -0.2134
      9 C          60.5049   86.5384    8.5242 C.ar    1  UNL1        0.1003
     10 C          60.4573   85.8956    7.1698 C.ar    1  UNL1        0.0207
     11 C          61.5947   85.0332    6.7086 C.ar    1  UNL1        0.0016
     12 C          62.7795   84.8136    7.6019 C.ar    1  UNL1        0.0016
     13 C          62.8270   85.4564    8.9563 C.ar    1  UNL1        0.0192
     14 C          61.6897   86.3188    9.4175 C.ar    1  UNL1        0.0869
     15 N          61.4574   87.0774   10.6904 N.ar    1  UNL1       -0.2480
     16 C          59.6493   90.1256   11.5593 C.3     1  UNL1        0.1108
     17 N          59.4998   88.6349   11.6322 N.pl3   1  UNL1       -0.3023
     18 H          58.9886   88.2269   12.3681 H       1  UNL1        0.1497
     19 N          64.2527   89.8511   14.0805 N.pl3   1  UNL1       -0.2897
     20 C          65.0466   90.7676   13.1974 C.3     1  UNL1        0.1242
     21 C          65.5118   92.0948   13.7189 C.3     1  UNL1        0.1636
     22 O          65.1832   92.5056   15.1236 O.3     1  UNL1       -0.3502
     23 C          64.3894   91.5892   16.0067 C.3     1  UNL1        0.1618
     24 C          63.9242   90.2620   15.4852 C.3     1  UNL1        0.1038
     25 C          63.1303   89.3456   16.3684 C.3     1  UNL1        0.0241
     26 C          64.2566   84.6616   14.3412 C.3     1  UNL1        0.1119
     27 C          64.9909   83.7432   15.2726 C.3     1  UNL1        0.0204
     28 C          65.1879   85.2268   15.3723 C.3     1  UNL1        0.0204
     29 S          63.4877   83.6561   13.5365 S.3     1  UNL1        0.0687
     30 C          62.7188   82.6505   12.7317 C.3     1  UNL1        0.1170
     31 N          64.6228   83.5696   12.5597 N.2     1  UNL1       -0.2504
     32 O          62.3526   83.7424   14.5132 O.2     1  UNL1       -0.2461
     33 H          65.4324   84.1128   12.6965 H       1  UNL1        0.1971
@<TRIPOS>BOND
     1    16    17    1
     2    17     7    1
     3     7     8   ar
     4     8     9   ar
     5     9    10   ar
     6    10    11   ar
     7    11    12   ar
     8    12    13   ar
     9    13    14   ar
    10    14    15   ar
    11    15     1    1
    12     1     2   ar
    13     2     3   ar
    14     3    19    1
    15    19    20    1
    16    20    21    1
    17    21    22    1
    18    22    23    1
    19    23    24    1
    20    24    25    1
    21     3     4   ar
    22     4     5   ar
    23     5    26    1
    24    26    29    1
    25    29    30    1
    26    29    31    2
    27    29    32    2
    28    26    27    1
    29    27    28    1
    30     5     6   ar
    31    15     7   ar
    32     6     1   ar
    33    14     9   ar
    34    24    19    1
    35    28    26    1
    36    17    18    1
    37    31    33    1
@<TRIPOS>MOLECULE
*****
 33 37 0 0 0
SMALL
GASTEIGER

@<TRIPOS>ATOM
      1 C          63.1105   88.1561   12.5422 C.ar    1  UNL1        0.2398
      2 N          63.3685   86.7225   12.9000 N.ar    1  UNL1       -0.1961
      3 C          62.6343   85.6271   12.1851 C.ar    1  UNL1        0.1361
      4 C          61.6421   85.9654   11.1122 C.ar    1  UNL1        0.0501
      5 C          61.3841   87.3990   10.7543 C.ar    1  UNL1        0.0767
      6 N          62.1183   88.4944   11.4693 N.ar    1  UNL1       -0.2144
      7 C          64.1908   89.2743   14.7165 C.ar    1  UNL1        0.2041
      8 N          64.9217   90.5532   14.9995 N.ar    1  UNL1       -0.2134
      9 C          65.0272   91.3208   13.7152 C.ar    1  UNL1        0.1003
     10 C          65.6434   92.6484   13.3871 C.ar    1  UNL1        0.0207
     11 C          65.5940   93.1715   11.9821 C.ar    1  UNL1        0.0016
     12 C          64.9284   92.3669   10.9053 C.ar    1  UNL1        0.0016
     13 C          64.3122   91.0393   11.2333 C.ar    1  UNL1        0.0192
     14 C          64.3616   90.5163   12.6383 C.ar    1  UNL1        0.0869
     15 N          63.8447   89.2514   13.2572 N.ar    1  UNL1       -0.2480
     16 C          63.0823   88.5477   16.9510 C.3     1  UNL1        0.1108
     17 N          63.8636   88.2057   15.7171 N.pl3   1  UNL1       -0.3023
     18 H          64.1616   87.2800   15.5640 H       1  UNL1        0.1497
     19 N          62.8923   84.1935   12.5430 N.pl3   1  UNL1       -0.2897
     20 C          62.5696   83.6944   13.9202 C.3     1  UNL1        0.1242
     21 C          62.8276   82.2608   14.2781 C.3     1  UNL1        0.1636
     22 O          63.4084   81.3261   13.2587 O.3     1  UNL1       -0.3502
     23 C          63.7312   81.8252   11.8815 C.3     1  UNL1        0.1618
     24 C          63.4732   83.2588   11.5236 C.3     1  UNL1        0.1038
     25 C          63.7960   83.7578   10.1464 C.3     1  UNL1        0.0241
     26 C          60.3919   87.7374    9.6814 C.3     1  UNL1        0.1119
     27 C          59.5351   87.5956    8.4584 C.3     1  UNL1        0.0204
     28 C          60.4371   86.4725    8.8765 C.3     1  UNL1        0.0204
     29 S          60.0021   89.1198   10.1137 S.3     1  UNL1        0.0687
     30 C          59.6122   90.5022   10.5460 C.3     1  UNL1        0.1170
     31 N          60.8506   89.7006    9.0217 N.2     1  UNL1       -0.2504
     32 O          59.1534   88.5390   11.2058 O.2     1  UNL1       -0.2461
     33 H          61.3507   89.1055    8.4176 H       1  UNL1        0.1971
@<TRIPOS>BOND
     1    16    17    1
     2    17     7    1
     3     7     8   ar
     4     8     9   ar
     5     9    10   ar
     6    10    11   ar
     7    11    12   ar
     8    12    13   ar
     9    13    14   ar
    10    14    15   ar
    11    15     1    1
    12     1     2   ar
    13     2     3   ar
    14     3    19    1
    15    19    20    1
    16    20    21    1
    17    21    22    1
    18    22    23    1
    19    23    24    1
    20    24    25    1
    21     3     4   ar
    22     4     5   ar
    23     5    26    1
    24    26    29    1
    25    29    30    1
    26    29    31    2
    27    29    32    2
    28    26    27    1
    29    27    28    1
    30     5     6   ar
    31    15     7   ar
    32     6     1   ar
    33    14     9   ar
    34    24    19    1
    35    28    26    1
    36    17    18    1
    37    31    33    1
@<TRIPOS>MOLECULE
*****
 33 37 0 0 0
SMALL
GASTEIGER

@<TRIPOS>ATOM
      1 C          62.3797   87.2824   11.7627 C.ar    1  UNL1        0.2398
      2 N          62.9096   88.6094   12.2187 N.ar    1  UNL1       -0.1961
      3 C          63.7760   88.6914   13.4405 C.ar    1  UNL1        0.1361
      4 C          64.1125   87.4463   14.2062 C.ar    1  UNL1        0.0501
      5 C          63.5825   86.1191   13.7502 C.ar    1  UNL1        0.0767
      6 N          62.7162   86.0372   12.5285 N.ar    1  UNL1       -0.2144
      7 C          60.2363   87.9538   10.3135 C.ar    1  UNL1        0.2041
      8 N          59.7057   87.5696    8.9641 N.ar    1  UNL1       -0.2134
      9 C          60.6547   86.5789    8.3576 C.ar    1  UNL1        0.1003
     10 C          60.6459   85.8551    7.0438 C.ar    1  UNL1        0.0207
     11 C          61.7543   84.9031    6.7047 C.ar    1  UNL1        0.0016
     12 C          62.8715   84.6749    7.6792 C.ar    1  UNL1        0.0016
     13 C          62.8803   85.3988    8.9929 C.ar    1  UNL1        0.0192
     14 C          61.7719   86.3507    9.3321 C.ar    1  UNL1        0.0869
     15 N          61.5133   87.2004   10.5409 N.ar    1  UNL1       -0.2480
     16 C          59.8836   90.3895   11.1459 C.3     1  UNL1        0.1108
     17 N          59.6014   88.9213   11.2678 N.pl3   1  UNL1       -0.3023
     18 H          58.9996   88.5928   11.9742 H       1  UNL1        0.1497
     19 N          64.3060   90.0185   13.8965 N.pl3   1  UNL1       -0.2897
     20 C          65.0717   90.8879   12.9437 C.3     1  UNL1        0.1242
     21 C          65.6016   92.2150   13.3997 C.3     1  UNL1        0.1636
     22 O          65.3658   92.6728   14.8085 O.3     1  UNL1       -0.3502
     23 C          64.6001   91.8034   15.7613 C.3     1  UNL1        0.1618
     24 C          64.0702   90.4763   15.3053 C.3     1  UNL1        0.1038
     25 C          63.3045   89.6070   16.2582 C.3     1  UNL1        0.0241
     26 C          63.9189   84.8740   14.5159 C.3     1  UNL1        0.1119
     27 C          64.5046   83.5304   14.8349 C.3     1  UNL1        0.0204
     28 C          64.7536   84.1583   13.4956 C.3     1  UNL1        0.0204
     29 S          63.2012   85.1572   15.8022 S.3     1  UNL1        0.0687
     30 C          62.4833   85.4403   17.0885 C.3     1  UNL1        0.1170
     31 N          61.9072   84.7320   15.1738 N.2     1  UNL1       -0.2504
     32 O          64.4951   85.5824   16.4306 O.2     1  UNL1       -0.2461
     33 H          61.8905   84.4315   14.2365 H       1  UNL1        0.1971
@<TRIPOS>BOND
     1    16    17    1
     2    17     7    1
     3     7     8   ar
     4     8     9   ar
     5     9    10   ar
     6    10    11   ar
     7    11    12   ar
     8    12    13   ar
     9    13    14   ar
    10    14    15   ar
    11    15     1    1
    12     1     2   ar
    13     2     3   ar
    14     3    19    1
    15    19    20    1
    16    20    21    1
    17    21    22    1
    18    22    23    1
    19    23    24    1
    20    24    25    1
    21     3     4   ar
    22     4     5   ar
    23     5    26    1
    24    26    29    1
    25    29    30    1
    26    29    31    2
    27    29    32    2
    28    26    27    1
    29    27    28    1
    30     5     6   ar
    31    15     7   ar
    32     6     1   ar
    33    14     9   ar
    34    24    19    1
    35    28    26    1
    36    17    18    1
    37    31    33    1
@<TRIPOS>MOLECULE
*****
 33 37 0 0 0
SMALL
GASTEIGER

@<TRIPOS>ATOM
      1 C          63.2746   87.1100   13.0772 C.ar    1  UNL1        0.2398
      2 N          64.0189   88.2938   13.6196 N.ar    1  UNL1       -0.1961
      3 C          63.8308   89.6466   12.9993 C.ar    1  UNL1        0.1361
      4 C          62.8984   89.8154   11.8365 C.ar    1  UNL1        0.0501
      5 C          62.1541   88.6316   11.2940 C.ar    1  UNL1        0.0767
      6 N          62.3422   87.2788   11.9143 N.ar    1  UNL1       -0.2144
      7 C          63.6362   85.4744   15.1603 C.ar    1  UNL1        0.2041
      8 N          63.7910   83.9922   15.3306 N.ar    1  UNL1       -0.2134
      9 C          63.7131   83.3589   13.9731 C.ar    1  UNL1        0.1003
     10 C          63.8007   81.9299   13.5257 C.ar    1  UNL1        0.0207
     11 C          63.6854   81.5918   12.0689 C.ar    1  UNL1        0.0016
     12 C          63.4825   82.6826   11.0595 C.ar    1  UNL1        0.0016
     13 C          63.3949   84.1116   11.5069 C.ar    1  UNL1        0.0192
     14 C          63.5102   84.4498   12.9637 C.ar    1  UNL1        0.0869
     15 N          63.4627   85.7572   13.6974 N.ar    1  UNL1       -0.2480
     16 C          62.7399   86.3396   17.4402 C.3     1  UNL1        0.1108
     17 N          63.6522   86.4947   16.2597 N.pl3   1  UNL1       -0.3023
     18 H          64.2615   87.2662   16.2065 H       1  UNL1        0.1497
     19 N          64.5752   90.8305   13.5419 N.pl3   1  UNL1       -0.2897
     20 C          64.8615   90.9275   15.0110 C.3     1  UNL1        0.1242
     21 C          65.6059   92.1114   15.5536 C.3     1  UNL1        0.1636
     22 O          66.0639   93.1983   14.6269 O.3     1  UNL1       -0.3502
     23 C          65.7775   93.1013   13.1577 C.3     1  UNL1        0.1618
     24 C          65.0332   91.9174   12.6152 C.3     1  UNL1        0.1038
     25 C          64.7469   91.8205   11.1460 C.3     1  UNL1        0.0241
     26 C          61.2217   88.8003   10.1312 C.3     1  UNL1        0.1119
     27 C          60.3419   89.4662    9.1151 C.3     1  UNL1        0.0204
     28 C          61.0493   90.2903   10.1498 C.3     1  UNL1        0.0204
     29 S          61.0703   87.3691    9.7089 S.3     1  UNL1        0.0687
     30 C          60.9188   85.9377    9.2865 C.3     1  UNL1        0.1170
     31 N          59.7750   87.2842   10.4606 N.2     1  UNL1       -0.2504
     32 O          62.3655   87.4538    8.9571 O.2     1  UNL1       -0.2461
     33 H          59.4360   88.0699   10.9474 H       1  UNL1        0.1971
@<TRIPOS>BOND
     1    16    17    1
     2    17     7    1
     3     7     8   ar
     4     8     9   ar
     5     9    10   ar
     6    10    11   ar
     7    11    12   ar
     8    12    13   ar
     9    13    14   ar
    10    14    15   ar
    11    15     1    1
    12     1     2   ar
    13     2     3   ar
    14     3    19    1
    15    19    20    1
    16    20    21    1
    17    21    22    1
    18    22    23    1
    19    23    24    1
    20    24    25    1
    21     3     4   ar
    22     4     5   ar
    23     5    26    1
    24    26    29    1
    25    29    30    1
    26    29    31    2
    27    29    32    2
    28    26    27    1
    29    27    28    1
    30     5     6   ar
    31    15     7   ar
    32     6     1   ar
    33    14     9   ar
    34    24    19    1
    35    28    26    1
    36    17    18    1
    37    31    33    1
@<TRIPOS>MOLECULE
*****
 33 37 0 0 0
SMALL
GASTEIGER

@<TRIPOS>ATOM
      1 C          63.2109   88.1685   12.5458 C.ar    1  UNL1        0.2398
      2 N          62.3160   88.4149   11.3675 N.ar    1  UNL1       -0.1961
      3 C          61.6583   87.2608   10.6708 C.ar    1  UNL1        0.1361
      4 C          61.8955   85.8601   11.1524 C.ar    1  UNL1        0.0501
      5 C          62.7904   85.6136   12.3307 C.ar    1  UNL1        0.0767
      6 N          63.4481   86.7678   13.0274 N.ar    1  UNL1       -0.2144
      7 C          64.1454   89.4229   14.7133 C.ar    1  UNL1        0.2041
      8 N          64.8128   90.7413   14.9705 N.ar    1  UNL1       -0.2134
      9 C          64.9484   91.4560   13.6586 C.ar    1  UNL1        0.1003
     10 C          65.5279   92.7918   13.2986 C.ar    1  UNL1        0.0207
     11 C          65.5238   93.2508   11.8706 C.ar    1  UNL1        0.0016
     12 C          64.9402   92.3740   10.8026 C.ar    1  UNL1        0.0016
     13 C          64.3607   91.0382   11.1627 C.ar    1  UNL1        0.0192
     14 C          64.3648   90.5792   12.5907 C.ar    1  UNL1        0.0869
     15 N          63.8685   89.3226   13.2425 N.ar    1  UNL1       -0.2480
     16 C          63.0455   88.7720   16.9753 C.3     1  UNL1        0.1108
     17 N          63.8132   88.3866   15.7457 N.pl3   1  UNL1       -0.3023
     18 H          64.0990   87.4534   15.6161 H       1  UNL1        0.1497
     19 N          60.7634   87.5073    9.4925 N.pl3   1  UNL1       -0.2897
     20 C          60.1984   86.3493    8.7245 C.3     1  UNL1        0.1242
     21 C          59.3035   86.5958    7.5463 C.3     1  UNL1        0.1636
     22 O          58.9735   88.0003    7.1359 O.3     1  UNL1       -0.3502
     23 C          59.5385   89.1583    7.9039 C.3     1  UNL1        0.1618
     24 C          60.4334   88.9118    9.0822 C.3     1  UNL1        0.1038
     25 C          60.9984   90.0699    9.8501 C.3     1  UNL1        0.0241
     26 C          63.0277   84.2130   12.8123 C.3     1  UNL1        0.1119
     27 C          63.1234   82.7161   12.8018 C.3     1  UNL1        0.0204
     28 C          62.7025   83.4494   11.5628 C.3     1  UNL1        0.0204
     29 S          63.4352   84.4902   14.2289 S.3     1  UNL1        0.0687
     30 C          63.8428   84.7674   15.6457 C.3     1  UNL1        0.1170
     31 N          64.8783   84.3755   13.8363 N.2     1  UNL1       -0.2504
     32 O          61.9921   84.6050   14.6217 O.2     1  UNL1       -0.2461
     33 H          65.1203   84.1803   12.9022 H       1  UNL1        0.1971
@<TRIPOS>BOND
     1    16    17    1
     2    17     7    1
     3     7     8   ar
     4     8     9   ar
     5     9    10   ar
     6    10    11   ar
     7    11    12   ar
     8    12    13   ar
     9    13    14   ar
    10    14    15   ar
    11    15     1    1
    12     1     2   ar
    13     2     3   ar
    14     3    19    1
    15    19    20    1
    16    20    21    1
    17    21    22    1
    18    22    23    1
    19    23    24    1
    20    24    25    1
    21     3     4   ar
    22     4     5   ar
    23     5    26    1
    24    26    29    1
    25    29    30    1
    26    29    31    2
    27    29    32    2
    28    26    27    1
    29    27    28    1
    30     5     6   ar
    31    15     7   ar
    32     6     1   ar
    33    14     9   ar
    34    24    19    1
    35    28    26    1
    36    17    18    1
    37    31    33    1
@<TRIPOS>MOLECULE
*****
 33 37 0 0 0
SMALL
GASTEIGER

@<TRIPOS>ATOM
      1 C          63.1691   87.6266   12.6508 C.ar    1  UNL1        0.2398
      2 N          62.3924   87.6550   11.3680 N.ar    1  UNL1       -0.1961
      3 C          61.8048   86.3888   10.8188 C.ar    1  UNL1        0.1361
      4 C          61.9940   85.0942   11.5524 C.ar    1  UNL1        0.0501
      5 C          62.7708   85.0658   12.8353 C.ar    1  UNL1        0.0767
      6 N          63.3583   86.3319   13.3845 N.ar    1  UNL1       -0.2144
      7 C          64.1427   89.1384   14.6286 C.ar    1  UNL1        0.2041
      8 N          64.6859   90.5330   14.7286 N.ar    1  UNL1       -0.2134
      9 C          64.6357   91.1492   13.3619 C.ar    1  UNL1        0.1003
     10 C          65.0387   92.5024   12.8556 C.ar    1  UNL1        0.0207
     11 C          64.8673   92.8418   11.4047 C.ar    1  UNL1        0.0016
     12 C          64.2930   91.8281   10.4600 C.ar    1  UNL1        0.0016
     13 C          63.8900   90.4749   10.9663 C.ar    1  UNL1        0.0192
     14 C          64.0613   90.1354   12.4173 C.ar    1  UNL1        0.0869
     15 N          63.7567   88.8927   13.2001 N.ar    1  UNL1       -0.2480
     16 C          63.0576   88.4414   16.8840 C.3     1  UNL1        0.1108
     17 N          64.0089   88.1611   15.7587 N.pl3   1  UNL1       -0.3023
     18 H          64.5455   87.3357   15.7618 H       1  UNL1        0.1497
     19 N          61.0280   86.4173    9.5359 N.pl3   1  UNL1       -0.2897
     20 C          59.6893   87.0919    9.4844 C.3     1  UNL1        0.1242
     21 C          58.9126   87.1203    8.2015 C.3     1  UNL1        0.1636
     22 O          59.4745   86.4741    6.9700 O.3     1  UNL1       -0.3502
     23 C          60.8132   85.7995    7.0215 C.3     1  UNL1        0.1618
     24 C          61.5900   85.7711    8.3043 C.3     1  UNL1        0.1038
     25 C          62.9287   85.0965    8.3557 C.3     1  UNL1        0.0241
     26 C          62.9600   83.7713   13.5689 C.3     1  UNL1        0.1119
     27 C          62.8967   82.7509   14.6666 C.3     1  UNL1        0.0204
     28 C          62.2985   84.1111   14.8716 C.3     1  UNL1        0.0204
     29 S          63.6872   82.9819   12.5212 S.3     1  UNL1        0.0687
     30 C          64.4145   82.1924   11.4734 C.3     1  UNL1        0.1170
     31 N          64.9566   83.7078   12.8551 N.2     1  UNL1       -0.2504
     32 O          62.4178   82.2558   12.1871 O.2     1  UNL1       -0.2461
     33 H          64.9599   84.3948   13.5603 H       1  UNL1        0.1971
@<TRIPOS>BOND
     1    16    17    1
     2    17     7    1
     3     7     8   ar
     4     8     9   ar
     5     9    10   ar
     6    10    11   ar
     7    11    12   ar
     8    12    13   ar
     9    13    14   ar
    10    14    15   ar
    11    15     1    1
    12     1     2   ar
    13     2     3   ar
    14     3    19    1
    15    19    20    1
    16    20    21    1
    17    21    22    1
    18    22    23    1
    19    23    24    1
    20    24    25    1
    21     3     4   ar
    22     4     5   ar
    23     5    26    1
    24    26    29    1
    25    29    30    1
    26    29    31    2
    27    29    32    2
    28    26    27    1
    29    27    28    1
    30     5     6   ar
    31    15     7   ar
    32     6     1   ar
    33    14     9   ar
    34    24    19    1
    35    28    26    1
    36    17    18    1
    37    31    33    1
@<TRIPOS>MOLECULE
*****
 33 37 0 0 0
SMALL
GASTEIGER

@<TRIPOS>ATOM
      1 C          63.1225   88.4195   12.3166 C.ar    1  UNL1        0.2398
      2 N          63.2544   86.9950   12.7673 N.ar    1  UNL1       -0.1961
      3 C          62.5204   85.9073   12.0406 C.ar    1  UNL1        0.1361
      4 C          61.6543   86.2442   10.8631 C.ar    1  UNL1        0.0501
      5 C          61.5223   87.6688   10.4124 C.ar    1  UNL1        0.0767
      6 N          62.2564   88.7565   11.1391 N.ar    1  UNL1       -0.2144
      7 C          64.1823   89.5251   14.5075 C.ar    1  UNL1        0.2041
      8 N          64.9208   90.7969   14.8025 N.ar    1  UNL1       -0.2134
      9 C          65.0515   91.5651   13.5207 C.ar    1  UNL1        0.1003
     10 C          65.6844   92.8874   13.2032 C.ar    1  UNL1        0.0207
     11 C          65.6596   93.4126   11.7984 C.ar    1  UNL1        0.0016
     12 C          65.0018   92.6155   10.7111 C.ar    1  UNL1        0.0016
     13 C          64.3689   91.2932   11.0287 C.ar    1  UNL1        0.0192
     14 C          64.3937   90.7680   12.4335 C.ar    1  UNL1        0.0869
     15 N          63.8565   89.5072   13.0434 N.ar    1  UNL1       -0.2480
     16 C          63.0953   88.8176   16.7586 C.3     1  UNL1        0.1108
     17 N          63.8312   88.4584   15.5019 N.pl3   1  UNL1       -0.3023
     18 H          64.0837   87.5226   15.3297 H       1  UNL1        0.1497
     19 N          62.6524   84.4828   12.4913 N.pl3   1  UNL1       -0.2897
     20 C          62.2518   84.0966   13.8842 C.3     1  UNL1        0.1242
     21 C          62.3838   82.6721   14.3350 C.3     1  UNL1        0.1636
     22 O          62.9164   81.6336   13.3927 O.3     1  UNL1       -0.3502
     23 C          63.3171   82.0197   11.9998 C.3     1  UNL1        0.1618
     24 C          63.1851   83.4443   11.5491 C.3     1  UNL1        0.1038
     25 C          63.5858   83.8304   10.1561 C.3     1  UNL1        0.0241
     26 C          60.6563   88.0058    9.2349 C.3     1  UNL1        0.1119
     27 C          59.7574   88.7889    8.3246 C.3     1  UNL1        0.0204
     28 C          60.2608   89.4072    9.5951 C.3     1  UNL1        0.0204
     29 S          60.7510   86.7215    8.4659 S.3     1  UNL1        0.0687
     30 C          60.8456   85.4371    7.6968 C.3     1  UNL1        0.1170
     31 N          59.2570   86.5917    8.4985 N.2     1  UNL1       -0.2504
     32 O          62.2450   86.8511    8.4332 O.2     1  UNL1       -0.2461
     33 H          58.7128   87.2792    8.9464 H       1  UNL1        0.1971
@<TRIPOS>BOND
     1    16    17    1
     2    17     7    1
     3     7     8   ar
     4     8     9   ar
     5     9    10   ar
     6    10    11   ar
     7    11    12   ar
     8    12    13   ar
     9    13    14   ar
    10    14    15   ar
    11    15     1    1
    12     1     2   ar
    13     2     3   ar
    14     3    19    1
    15    19    20    1
    16    20    21    1
    17    21    22    1
    18    22    23    1
    19    23    24    1
    20    24    25    1
    21     3     4   ar
    22     4     5   ar
    23     5    26    1
    24    26    29    1
    25    29    30    1
    26    29    31    2
    27    29    32    2
    28    26    27    1
    29    27    28    1
    30     5     6   ar
    31    15     7   ar
    32     6     1   ar
    33    14     9   ar
    34    24    19    1
    35    28    26    1
    36    17    18    1
    37    31    33    1
